####################################################################### 
# 
# This file contains crystal structure data downloaded from the 
# Cambridge Structural Database (CSD) hosted by the Cambridge 
# Crystallographic Data Centre (CCDC).
# 
# Full information about CCDC data access policies and citation 
# guidelines are available at http://www.ccdc.cam.ac.uk/access/V1 
# 
# Audit and citation data items may have been added by the CCDC. 
# Please retain this information to preserve the provenance of 
# this file and to allow appropriate attribution of the data. 
# 
#######################################################################

data_shelx
_audit_block_doi                 10.5517/ccdc.csd.cc2d6r1f
_database_code_depnum_ccdc_archive 'CCDC 2211014'
loop_
_citation_id
_citation_doi
_citation_year
1 10.3390/magnetochemistry8110151 2022
loop_
_audit_author_name
_audit_author_address
'Gennadii Shilov'
;Institute of Problems of Chemical Physics
Russia
;
_audit_update_record             
;
2022-10-04 deposited with the CCDC.	2023-11-16 downloaded from the CCDC.
;

_audit_creation_method           SHELXL-2018/3
_shelx_SHELXL_version_number     2018/3
_chemical_name_systematic        ?
_chemical_name_common            ?
_chemical_melting_point          ?
_chemical_formula_moiety         ?
_chemical_formula_sum            'C30 H33 Dy N2 O8'
_chemical_formula_weight         712.08

loop_
_atom_type_symbol
_atom_type_description
_atom_type_scat_dispersion_real
_atom_type_scat_dispersion_imag
_atom_type_scat_source
C C 0.0033 0.0016 'International Tables Vol C Tables 4.2.6.8 and 6.1.1.4'
H H 0.0000 0.0000 'International Tables Vol C Tables 4.2.6.8 and 6.1.1.4'
N N 0.0061 0.0033 'International Tables Vol C Tables 4.2.6.8 and 6.1.1.4'
O O 0.0106 0.0060 'International Tables Vol C Tables 4.2.6.8 and 6.1.1.4'
Dy Dy -0.1892 4.4098 'International Tables Vol C Tables 4.2.6.8 and 6.1.1.4'

_space_group_crystal_system      triclinic
_space_group_IT_number           2
_space_group_name_H-M_alt        'P -1'
_space_group_name_Hall           '-P 1'

_shelx_space_group_comment       
;
The symmetry employed for this shelxl refinement is uniquely defined
by the following loop, which should always be used as a source of
symmetry information in preference to the above space-group names.
They are only intended as comments.
;

loop_
_space_group_symop_operation_xyz
'x, y, z'
'-x, -y, -z'

_cell_length_a                   9.5844(3)
_cell_length_b                   9.9719(3)
_cell_length_c                   15.9368(5)
_cell_angle_alpha                84.771(3)
_cell_angle_beta                 76.665(3)
_cell_angle_gamma                79.950(3)
_cell_volume                     1457.29(8)
_cell_formula_units_Z            2
_cell_measurement_temperature    100(1)
_cell_measurement_reflns_used    8605
_cell_measurement_theta_min      2.7788
_cell_measurement_theta_max      31.6004

_exptl_crystal_description       plate
_exptl_crystal_colour            ?
_exptl_crystal_density_meas      ?
_exptl_crystal_density_method    ?
_exptl_crystal_density_diffrn    1.623
_exptl_crystal_F_000             714
_exptl_transmission_factor_min   ?
_exptl_transmission_factor_max   ?
_exptl_crystal_size_max          0.15
_exptl_crystal_size_mid          0.10
_exptl_crystal_size_min          0.08
_exptl_absorpt_coefficient_mu    2.616
_exptl_absorpt_correction_T_min  0.90726
_exptl_absorpt_correction_T_max  1.00000
_exptl_absorpt_correction_type   multi-scan
_exptl_absorpt_process_details   
;
CrysAlisPro, Agilent Technologies,
Version 1.171.36.20 (release 27-06-2012 CrysAlis171 .NET)
(compiled Jul 11 2012,15:38:31)
Empirical absorption correction using spherical harmonics,
 implemented in SCALE3 ABSPACK scaling algorithm.
;
_diffrn_ambient_temperature      100(1)
_diffrn_radiation_wavelength     0.7107
_diffrn_radiation_type           'Mo K\a'
_diffrn_radiation_source         'Enhance (Mo) X-ray Source'
_diffrn_radiation_monochromator  graphite
_diffrn_measurement_device_type  'Xcalibur, Eos'
_diffrn_detector_area_resol_mean 16.2060
_diffrn_reflns_number            14726
_diffrn_reflns_av_unetI/netI     0.0659
_diffrn_reflns_av_R_equivalents  0.0348
_diffrn_measurement_method       '\w scans'
_diffrn_reflns_limit_h_min       -13
_diffrn_reflns_limit_h_max       13
_diffrn_reflns_limit_k_min       -13
_diffrn_reflns_limit_k_max       14
_diffrn_reflns_limit_l_min       -19
_diffrn_reflns_limit_l_max       21
_diffrn_reflns_theta_min         2.784
_diffrn_reflns_theta_max         31.672
_diffrn_reflns_theta_full        25.242
_diffrn_measured_fraction_theta_max 0.866
_diffrn_measured_fraction_theta_full 0.999
_diffrn_reflns_Laue_measured_fraction_max 0.866
_diffrn_reflns_Laue_measured_fraction_full 0.999
_diffrn_reflns_point_group_measured_fraction_max 0.866
_diffrn_reflns_point_group_measured_fraction_full 0.999
_reflns_number_total             8538
_reflns_number_gt                7529
_reflns_threshold_expression     'I > 2\s(I)'
_reflns_Friedel_coverage         0.000
_reflns_Friedel_fraction_max     .
_reflns_Friedel_fraction_full    .

_reflns_special_details          
;
 Reflections were merged by SHELXL according to the crystal
 class for the calculation of statistics and refinement.
 
 _reflns_Friedel_fraction is defined as the number of unique
 Friedel pairs measured divided by the number that would be
 possible theoretically, ignoring centric projections and
 systematic absences.
;

_computing_data_collection       
'CrysAlisPro 1.171.36.20 (Agilent Technologies, 2012)'
_computing_cell_refinement       
'CrysAlisPro 1.171.36.20 (Agilent Technologies, 2012)'
_computing_data_reduction        
'CrysAlisPro 1.171.36.20 (Agilent Technologies, 2012)'
_computing_structure_solution    'SHELXS-2013/1 (Sheldrick, 2008)'
_computing_structure_refinement  'SHELXL-2018/3 (Sheldrick, 2018)'
_computing_molecular_graphics    ?
_computing_publication_material  ?
_refine_special_details          ?
_refine_ls_structure_factor_coef Fsqd
_refine_ls_matrix_type           full
_refine_ls_weighting_scheme      calc
_refine_ls_weighting_details     
'w=1/[\s^2^(Fo^2^)+(0.0102P)^2^] where P=(Fo^2^+2Fc^2^)/3'
_atom_sites_solution_primary     ?
_atom_sites_solution_secondary   ?
_atom_sites_solution_hydrogens   geom
_refine_ls_hydrogen_treatment    constr
_refine_ls_extinction_method     none
_refine_ls_extinction_coef       .
_refine_ls_number_reflns         8538
_refine_ls_number_parameters     378
_refine_ls_number_restraints     0
_refine_ls_R_factor_all          0.0404
_refine_ls_R_factor_gt           0.0327
_refine_ls_wR_factor_ref         0.0583
_refine_ls_wR_factor_gt          0.0548
_refine_ls_goodness_of_fit_ref   1.001
_refine_ls_restrained_S_all      1.001
_refine_ls_shift/su_max          0.002
_refine_ls_shift/su_mean         0.000

loop_
_atom_site_label
_atom_site_type_symbol
_atom_site_fract_x
_atom_site_fract_y
_atom_site_fract_z
_atom_site_U_iso_or_equiv
_atom_site_adp_type
_atom_site_occupancy
_atom_site_site_symmetry_order
_atom_site_calc_flag
_atom_site_refinement_flags_posn
_atom_site_refinement_flags_adp
_atom_site_refinement_flags_occupancy
_atom_site_disorder_assembly
_atom_site_disorder_group
Dy1 Dy 0.78450(2) 0.12139(2) 0.78772(2) 0.01228(4) Uani 1 1 d . . . . .
O6 O 0.70936(19) 0.07554(18) 0.66472(13) 0.0160(4) Uani 1 1 d . . . . .
O7 O 1.51211(19) -0.24120(18) 0.64950(14) 0.0190(4) Uani 1 1 d . . . . .
O5 O 0.87366(19) 0.27190(17) 0.67458(13) 0.0147(4) Uani 1 1 d . . . . .
O3 O 0.60354(19) -0.00693(18) 0.84266(13) 0.0167(4) Uani 1 1 d . . . . .
O8 O 1.38249(19) -0.41114(18) 0.63527(14) 0.0180(4) Uani 1 1 d . . . . .
O4 O 0.8452(2) 0.00191(18) 0.90675(13) 0.0169(4) Uani 1 1 d . . . . .
N1 N 1.0672(2) 0.0787(2) 0.75099(15) 0.0135(5) Uani 1 1 d . . . . .
O1 O 0.57716(19) 0.28394(18) 0.81697(13) 0.0180(4) Uani 1 1 d . . . . .
O2 O 0.8411(2) 0.28897(18) 0.86023(13) 0.0179(4) Uani 1 1 d . . . . .
N2 N 0.9155(2) -0.1220(2) 0.73787(15) 0.0136(5) Uani 1 1 d . . . . .
C9 C 0.8937(4) -0.1570(3) 1.0189(2) 0.0321(8) Uani 1 1 d . . . . .
H9A H 0.906529 -0.088667 1.053952 0.048 Uiso 1 1 calc R U . . .
H9B H 0.986469 -0.196607 0.986083 0.048 Uiso 1 1 calc R U . . .
H9C H 0.848726 -0.226726 1.055360 0.048 Uiso 1 1 calc R U . . .
C28 C 1.5223(3) -0.3629(3) 0.6021(2) 0.0187(6) Uani 1 1 d . . . . .
C8 C 0.7989(3) -0.0931(3) 0.95873(19) 0.0190(6) Uani 1 1 d . . . . .
C3 C 0.7794(3) 0.4040(3) 0.88747(18) 0.0166(6) Uani 1 1 d . . . . .
C21 C 1.2979(3) -0.0669(3) 0.70445(18) 0.0146(5) Uani 1 1 d . . . . .
C24 C 1.1376(3) -0.2812(3) 0.69156(18) 0.0145(5) Uani 1 1 d . . . . .
C22 C 1.3651(3) -0.1977(3) 0.67543(19) 0.0158(6) Uani 1 1 d . . . . .
C7 C 0.6676(3) -0.1399(3) 0.96165(19) 0.0210(6) Uani 1 1 d . . . . .
H7A H 0.639620 -0.205942 1.004387 0.025 Uiso 1 1 calc R U . . .
C1 C 0.5420(3) 0.3975(3) 0.85216(19) 0.0174(6) Uani 1 1 d . . . . .
C20 C 1.3732(3) 0.0385(3) 0.71297(19) 0.0175(6) Uani 1 1 d . . . . .
H20A H 1.474152 0.025270 0.701095 0.021 Uiso 1 1 calc R U . . .
C23 C 1.2899(3) -0.2967(3) 0.66773(19) 0.0154(6) Uani 1 1 d . . . . .
C29 C 1.5373(3) -0.3212(3) 0.5073(2) 0.0215(6) Uani 1 1 d . . . . .
H29A H 1.447666 -0.268650 0.498059 0.032 Uiso 1 1 calc R U . . .
H29B H 1.560045 -0.401269 0.474401 0.032 Uiso 1 1 calc R U . . .
H29C H 1.613780 -0.267301 0.489099 0.032 Uiso 1 1 calc R U . . .
C14 C 0.7236(3) -0.0090(3) 0.52891(19) 0.0225(6) Uani 1 1 d . . . . .
H14A H 0.735956 -0.101777 0.551698 0.034 Uiso 1 1 calc R U . . .
H14B H 0.782511 -0.003261 0.471535 0.034 Uiso 1 1 calc R U . . .
H14C H 0.623465 0.020959 0.527304 0.034 Uiso 1 1 calc R U . . .
C25 C 1.0555(3) -0.3851(3) 0.69148(19) 0.0172(6) Uani 1 1 d . . . . .
H25A H 1.101123 -0.472361 0.676116 0.021 Uiso 1 1 calc R U . . .
C27 C 0.8416(3) -0.2220(3) 0.73504(18) 0.0161(6) Uani 1 1 d . . . . .
H27A H 0.740733 -0.202498 0.747445 0.019 Uiso 1 1 calc R U . . .
C13 C 0.7694(3) 0.0809(3) 0.58605(19) 0.0166(6) Uani 1 1 d . . . . .
C17 C 1.1445(3) -0.0431(3) 0.72471(17) 0.0126(5) Uani 1 1 d . . . . .
C16 C 1.0631(3) -0.1507(3) 0.71837(17) 0.0129(5) Uani 1 1 d . . . . .
C11 C 0.9218(3) 0.2517(3) 0.5956(2) 0.0168(6) Uani 1 1 d . . . . .
C6 C 0.5772(3) -0.0942(3) 0.90504(19) 0.0162(6) Uani 1 1 d . . . . .
C2 C 0.6354(3) 0.4601(3) 0.8862(2) 0.0199(6) Uani 1 1 d . . . . .
H2A H 0.599288 0.544665 0.909541 0.024 Uiso 1 1 calc R U . . .
C15 C 1.0406(3) 0.3312(3) 0.5488(2) 0.0239(7) Uani 1 1 d . . . . .
H15A H 1.013124 0.425246 0.562679 0.036 Uiso 1 1 calc R U . . .
H15B H 1.054396 0.324509 0.487644 0.036 Uiso 1 1 calc R U . . .
H15C H 1.129379 0.294372 0.566480 0.036 Uiso 1 1 calc R U . . .
C19 C 1.2934(3) 0.1611(3) 0.73924(19) 0.0187(6) Uani 1 1 d . . . . .
H19A H 1.339863 0.232981 0.745312 0.022 Uiso 1 1 calc R U . . .
C18 C 1.1418(3) 0.1777(3) 0.75690(19) 0.0169(6) Uani 1 1 d . . . . .
H18A H 1.089936 0.262306 0.773703 0.020 Uiso 1 1 calc R U . . .
C10 C 0.4398(3) -0.1534(3) 0.9131(2) 0.0229(7) Uani 1 1 d . . . . .
H10A H 0.361220 -0.081098 0.907927 0.034 Uiso 1 1 calc R U . . .
H10B H 0.417370 -0.201275 0.968380 0.034 Uiso 1 1 calc R U . . .
H10C H 0.453318 -0.215397 0.868204 0.034 Uiso 1 1 calc R U . . .
C26 C 0.9076(3) -0.3557(3) 0.71433(19) 0.0166(6) Uani 1 1 d . . . . .
H26A H 0.851203 -0.423344 0.716175 0.020 Uiso 1 1 calc R U . . .
C30 C 1.6408(3) -0.4708(3) 0.6232(2) 0.0222(7) Uani 1 1 d . . . . .
H30A H 1.625583 -0.487146 0.684694 0.033 Uiso 1 1 calc R U . . .
H30B H 1.732950 -0.440828 0.601424 0.033 Uiso 1 1 calc R U . . .
H30C H 1.639797 -0.553494 0.597025 0.033 Uiso 1 1 calc R U . . .
C4 C 0.3888(3) 0.4688(3) 0.8556(2) 0.0227(7) Uani 1 1 d . . . . .
H4A H 0.321869 0.408279 0.882570 0.034 Uiso 1 1 calc R U . . .
H4B H 0.376226 0.495024 0.797985 0.034 Uiso 1 1 calc R U . . .
H4C H 0.370727 0.548592 0.888352 0.034 Uiso 1 1 calc R U . . .
C5 C 0.8692(3) 0.4833(3) 0.9250(2) 0.0232(7) Uani 1 1 d . . . . .
H5A H 0.963898 0.480052 0.887739 0.035 Uiso 1 1 calc R U . . .
H5B H 0.878370 0.443802 0.981061 0.035 Uiso 1 1 calc R U . . .
H5C H 0.822398 0.576424 0.929960 0.035 Uiso 1 1 calc R U . . .
C12 C 0.8763(3) 0.1622(3) 0.5484(2) 0.0191(6) Uani 1 1 d . . . . .
H12A H 0.918381 0.156125 0.489882 0.023 Uiso 1 1 calc R U . . .

loop_
_atom_site_aniso_label
_atom_site_aniso_U_11
_atom_site_aniso_U_22
_atom_site_aniso_U_33
_atom_site_aniso_U_23
_atom_site_aniso_U_13
_atom_site_aniso_U_12
Dy1 0.00994(6) 0.01485(6) 0.01178(7) -0.00115(5) -0.00233(5) -0.00105(4)
O6 0.0137(9) 0.0223(10) 0.0129(11) 0.0002(8) -0.0030(8) -0.0056(8)
O7 0.0080(9) 0.0219(10) 0.0278(13) -0.0097(9) -0.0036(9) -0.0003(8)
O5 0.0133(9) 0.0170(9) 0.0134(11) -0.0003(8) -0.0031(8) -0.0015(7)
O3 0.0148(9) 0.0194(10) 0.0152(11) 0.0005(8) -0.0023(8) -0.0030(8)
O8 0.0099(9) 0.0174(9) 0.0258(12) -0.0056(8) -0.0023(8) 0.0006(7)
O4 0.0172(10) 0.0203(10) 0.0138(11) 0.0009(8) -0.0048(8) -0.0035(8)
N1 0.0106(10) 0.0159(11) 0.0140(13) -0.0024(9) -0.0024(9) -0.0013(9)
O1 0.0121(9) 0.0179(9) 0.0217(12) -0.0035(8) 0.0001(8) 0.0002(8)
O2 0.0175(10) 0.0175(9) 0.0183(11) -0.0062(8) -0.0042(9) 0.0010(8)
N2 0.0098(10) 0.0188(11) 0.0128(12) -0.0020(9) -0.0030(9) -0.0024(9)
C9 0.0373(19) 0.0344(18) 0.033(2) 0.0103(15) -0.0221(17) -0.0138(15)
C28 0.0111(13) 0.0192(14) 0.0260(17) -0.0080(12) -0.0028(12) -0.0010(11)
C8 0.0248(15) 0.0172(13) 0.0149(16) -0.0035(11) -0.0062(13) 0.0004(12)
C3 0.0202(14) 0.0178(13) 0.0122(15) -0.0002(11) -0.0037(12) -0.0043(11)
C21 0.0137(13) 0.0167(13) 0.0131(15) 0.0001(11) -0.0039(11) -0.0011(10)
C24 0.0127(13) 0.0169(13) 0.0147(15) -0.0006(11) -0.0046(11) -0.0022(10)
C22 0.0098(12) 0.0186(13) 0.0183(16) -0.0020(11) -0.0025(11) -0.0006(10)
C7 0.0265(16) 0.0204(14) 0.0175(16) 0.0022(12) -0.0059(13) -0.0074(12)
C1 0.0146(13) 0.0177(13) 0.0162(15) 0.0030(11) 0.0010(12) -0.0003(11)
C20 0.0111(13) 0.0251(14) 0.0171(16) -0.0051(12) -0.0026(11) -0.0034(11)
C23 0.0140(13) 0.0159(13) 0.0163(15) -0.0028(11) -0.0039(11) -0.0003(11)
C29 0.0199(15) 0.0201(14) 0.0246(18) -0.0039(12) -0.0047(13) -0.0023(12)
C14 0.0275(16) 0.0256(15) 0.0176(17) 0.0004(12) -0.0089(13) -0.0084(13)
C25 0.0190(14) 0.0150(13) 0.0182(16) -0.0033(11) -0.0051(12) -0.0020(11)
C27 0.0113(12) 0.0236(14) 0.0145(15) -0.0019(11) -0.0027(11) -0.0052(11)
C13 0.0167(13) 0.0159(13) 0.0177(16) -0.0007(11) -0.0076(12) 0.0010(11)
C17 0.0096(12) 0.0178(13) 0.0108(14) 0.0018(10) -0.0042(10) -0.0024(10)
C16 0.0123(12) 0.0167(13) 0.0090(13) -0.0009(10) -0.0020(10) -0.0007(10)
C11 0.0146(13) 0.0136(13) 0.0208(16) 0.0030(11) -0.0046(12) 0.0004(10)
C6 0.0152(13) 0.0152(13) 0.0163(15) -0.0041(11) 0.0009(11) -0.0017(11)
C2 0.0203(15) 0.0146(13) 0.0234(17) -0.0028(12) -0.0029(13) -0.0003(11)
C15 0.0278(17) 0.0231(15) 0.0204(17) 0.0006(12) -0.0004(14) -0.0103(13)
C19 0.0148(13) 0.0220(14) 0.0216(17) -0.0060(12) -0.0052(12) -0.0053(11)
C18 0.0177(14) 0.0145(13) 0.0192(16) -0.0029(11) -0.0035(12) -0.0038(11)
C10 0.0220(15) 0.0214(15) 0.0250(18) 0.0002(13) -0.0009(13) -0.0092(12)
C26 0.0164(13) 0.0183(13) 0.0171(15) 0.0006(11) -0.0041(12) -0.0084(11)
C30 0.0126(13) 0.0242(15) 0.0303(19) -0.0056(13) -0.0075(13) 0.0015(11)
C4 0.0144(14) 0.0192(14) 0.0307(19) -0.0017(13) -0.0005(13) 0.0017(11)
C5 0.0260(16) 0.0197(14) 0.0254(18) -0.0060(13) -0.0073(14) -0.0033(12)
C12 0.0213(15) 0.0190(14) 0.0154(16) -0.0024(11) -0.0006(12) -0.0028(12)

_geom_special_details            
;
 All esds (except the esd in the dihedral angle between two l.s. planes)
 are estimated using the full covariance matrix.  The cell esds are taken
 into account individually in the estimation of esds in distances, angles
 and torsion angles; correlations between esds in cell parameters are only
 used when they are defined by crystal symmetry.  An approximate (isotropic)
 treatment of cell esds is used for estimating esds involving l.s. planes.
;

loop_
_geom_bond_atom_site_label_1
_geom_bond_atom_site_label_2
_geom_bond_distance
_geom_bond_site_symmetry_2
_geom_bond_publ_flag
Dy1 O4 2.283(2) . ?
Dy1 O3 2.2982(17) . ?
Dy1 O2 2.3194(17) . ?
Dy1 O1 2.3194(18) . ?
Dy1 O5 2.3404(18) . ?
Dy1 O6 2.3451(19) . ?
Dy1 N1 2.603(2) . ?
Dy1 N2 2.632(2) . ?
O6 C13 1.254(3) . ?
O7 C22 1.376(3) . ?
O7 C28 1.465(3) . ?
O5 C11 1.258(3) . ?
O3 C6 1.270(3) . ?
O8 C23 1.379(3) . ?
O8 C28 1.469(3) . ?
O4 C8 1.271(3) . ?
N1 C18 1.338(3) . ?
N1 C17 1.355(3) . ?
O1 C1 1.267(3) . ?
O2 C3 1.260(3) . ?
N2 C27 1.329(3) . ?
N2 C16 1.361(3) . ?
C9 C8 1.496(4) . ?
C9 H9A 0.9600 . ?
C9 H9B 0.9600 . ?
C9 H9C 0.9600 . ?
C28 C30 1.498(4) . ?
C28 C29 1.510(4) . ?
C8 C7 1.407(4) . ?
C3 C2 1.400(4) . ?
C3 C5 1.511(4) . ?
C21 C20 1.407(3) . ?
C21 C17 1.413(3) . ?
C21 C22 1.418(4) . ?
C24 C23 1.406(4) . ?
C24 C25 1.407(3) . ?
C24 C16 1.422(3) . ?
C22 C23 1.349(3) . ?
C7 C6 1.386(4) . ?
C7 H7A 0.9300 . ?
C1 C2 1.403(4) . ?
C1 C4 1.506(4) . ?
C20 C19 1.369(4) . ?
C20 H20A 0.9300 . ?
C29 H29A 0.9600 . ?
C29 H29B 0.9600 . ?
C29 H29C 0.9600 . ?
C14 C13 1.515(4) . ?
C14 H14A 0.9600 . ?
C14 H14B 0.9600 . ?
C14 H14C 0.9600 . ?
C25 C26 1.365(4) . ?
C25 H25A 0.9300 . ?
C27 C26 1.405(4) . ?
C27 H27A 0.9300 . ?
C13 C12 1.408(4) . ?
C17 C16 1.456(3) . ?
C11 C12 1.401(4) . ?
C11 C15 1.516(4) . ?
C6 C10 1.510(3) . ?
C2 H2A 0.9300 . ?
C15 H15A 0.9600 . ?
C15 H15B 0.9600 . ?
C15 H15C 0.9600 . ?
C19 C18 1.398(4) . ?
C19 H19A 0.9300 . ?
C18 H18A 0.9300 . ?
C10 H10A 0.9600 . ?
C10 H10B 0.9600 . ?
C10 H10C 0.9600 . ?
C26 H26A 0.9300 . ?
C30 H30A 0.9600 . ?
C30 H30B 0.9600 . ?
C30 H30C 0.9600 . ?
C4 H4A 0.9600 . ?
C4 H4B 0.9600 . ?
C4 H4C 0.9600 . ?
C5 H5A 0.9600 . ?
C5 H5B 0.9600 . ?
C5 H5C 0.9600 . ?
C12 H12A 0.9300 . ?

loop_
_geom_angle_atom_site_label_1
_geom_angle_atom_site_label_2
_geom_angle_atom_site_label_3
_geom_angle
_geom_angle_site_symmetry_1
_geom_angle_site_symmetry_3
_geom_angle_publ_flag
O4 Dy1 O3 73.97(7) . . ?
O4 Dy1 O2 77.68(7) . . ?
O3 Dy1 O2 124.88(7) . . ?
O4 Dy1 O1 114.59(7) . . ?
O3 Dy1 O1 76.76(6) . . ?
O2 Dy1 O1 73.65(7) . . ?
O4 Dy1 O5 140.94(6) . . ?
O3 Dy1 O5 144.93(7) . . ?
O2 Dy1 O5 77.61(7) . . ?
O1 Dy1 O5 86.50(6) . . ?
O4 Dy1 O6 137.29(6) . . ?
O3 Dy1 O6 76.61(6) . . ?
O2 Dy1 O6 145.02(7) . . ?
O1 Dy1 O6 87.44(7) . . ?
O5 Dy1 O6 72.00(6) . . ?
O4 Dy1 N1 75.73(7) . . ?
O3 Dy1 N1 136.32(7) . . ?
O2 Dy1 N1 77.13(6) . . ?
O1 Dy1 N1 145.55(6) . . ?
O5 Dy1 N1 69.59(7) . . ?
O6 Dy1 N1 107.13(7) . . ?
O4 Dy1 N2 73.39(7) . . ?
O3 Dy1 N2 78.97(6) . . ?
O2 Dy1 N2 134.77(7) . . ?
O1 Dy1 N2 150.71(6) . . ?
O5 Dy1 N2 104.66(7) . . ?
O6 Dy1 N2 71.10(7) . . ?
N1 Dy1 N2 62.59(6) . . ?
C13 O6 Dy1 131.74(17) . . ?
C22 O7 C28 104.09(19) . . ?
C11 O5 Dy1 129.49(16) . . ?
C6 O3 Dy1 136.24(18) . . ?
C23 O8 C28 103.86(18) . . ?
C8 O4 Dy1 136.41(18) . . ?
C18 N1 C17 117.3(2) . . ?
C18 N1 Dy1 120.79(17) . . ?
C17 N1 Dy1 121.86(15) . . ?
C1 O1 Dy1 136.07(18) . . ?
C3 O2 Dy1 136.43(18) . . ?
C27 N2 C16 117.9(2) . . ?
C27 N2 Dy1 121.89(17) . . ?
C16 N2 Dy1 120.10(16) . . ?
C8 C9 H9A 109.5 . . ?
C8 C9 H9B 109.5 . . ?
H9A C9 H9B 109.5 . . ?
C8 C9 H9C 109.5 . . ?
H9A C9 H9C 109.5 . . ?
H9B C9 H9C 109.5 . . ?
O7 C28 O8 104.8(2) . . ?
O7 C28 C30 109.9(2) . . ?
O8 C28 C30 108.6(2) . . ?
O7 C28 C29 108.7(2) . . ?
O8 C28 C29 109.2(2) . . ?
C30 C28 C29 115.1(2) . . ?
O4 C8 C7 124.0(3) . . ?
O4 C8 C9 116.2(3) . . ?
C7 C8 C9 119.8(3) . . ?
O2 C3 C2 124.5(3) . . ?
O2 C3 C5 116.4(3) . . ?
C2 C3 C5 119.1(2) . . ?
C20 C21 C17 119.1(2) . . ?
C20 C21 C22 124.6(2) . . ?
C17 C21 C22 116.3(2) . . ?
C23 C24 C25 124.8(2) . . ?
C23 C24 C16 116.7(2) . . ?
C25 C24 C16 118.5(2) . . ?
C23 C22 O7 110.6(2) . . ?
C23 C22 C21 123.2(2) . . ?
O7 C22 C21 126.1(2) . . ?
C6 C7 C8 124.3(3) . . ?
C6 C7 H7A 117.8 . . ?
C8 C7 H7A 117.8 . . ?
O1 C1 C2 124.7(3) . . ?
O1 C1 C4 116.3(3) . . ?
C2 C1 C4 119.0(3) . . ?
C19 C20 C21 118.0(2) . . ?
C19 C20 H20A 121.0 . . ?
C21 C20 H20A 121.0 . . ?
C22 C23 O8 110.8(2) . . ?
C22 C23 C24 122.8(2) . . ?
O8 C23 C24 126.3(2) . . ?
C28 C29 H29A 109.5 . . ?
C28 C29 H29B 109.5 . . ?
H29A C29 H29B 109.5 . . ?
C28 C29 H29C 109.5 . . ?
H29A C29 H29C 109.5 . . ?
H29B C29 H29C 109.5 . . ?
C13 C14 H14A 109.5 . . ?
C13 C14 H14B 109.5 . . ?
H14A C14 H14B 109.5 . . ?
C13 C14 H14C 109.5 . . ?
H14A C14 H14C 109.5 . . ?
H14B C14 H14C 109.5 . . ?
C26 C25 C24 118.9(2) . . ?
C26 C25 H25A 120.6 . . ?
C24 C25 H25A 120.6 . . ?
N2 C27 C26 123.6(2) . . ?
N2 C27 H27A 118.2 . . ?
C26 C27 H27A 118.2 . . ?
O6 C13 C12 124.7(3) . . ?
O6 C13 C14 116.6(2) . . ?
C12 C13 C14 118.7(3) . . ?
N1 C17 C21 122.2(2) . . ?
N1 C17 C16 117.3(2) . . ?
C21 C17 C16 120.6(2) . . ?
N2 C16 C24 121.7(2) . . ?
N2 C16 C17 118.2(2) . . ?
C24 C16 C17 120.1(2) . . ?
O5 C11 C12 125.8(2) . . ?
O5 C11 C15 116.1(2) . . ?
C12 C11 C15 118.0(3) . . ?
O3 C6 C7 124.5(2) . . ?
O3 C6 C10 115.6(3) . . ?
C7 C6 C10 119.9(3) . . ?
C3 C2 C1 124.5(3) . . ?
C3 C2 H2A 117.8 . . ?
C1 C2 H2A 117.8 . . ?
C11 C15 H15A 109.5 . . ?
C11 C15 H15B 109.5 . . ?
H15A C15 H15B 109.5 . . ?
C11 C15 H15C 109.5 . . ?
H15A C15 H15C 109.5 . . ?
H15B C15 H15C 109.5 . . ?
C20 C19 C18 119.6(2) . . ?
C20 C19 H19A 120.2 . . ?
C18 C19 H19A 120.2 . . ?
N1 C18 C19 123.7(2) . . ?
N1 C18 H18A 118.1 . . ?
C19 C18 H18A 118.1 . . ?
C6 C10 H10A 109.5 . . ?
C6 C10 H10B 109.5 . . ?
H10A C10 H10B 109.5 . . ?
C6 C10 H10C 109.5 . . ?
H10A C10 H10C 109.5 . . ?
H10B C10 H10C 109.5 . . ?
C25 C26 C27 119.3(2) . . ?
C25 C26 H26A 120.4 . . ?
C27 C26 H26A 120.4 . . ?
C28 C30 H30A 109.5 . . ?
C28 C30 H30B 109.5 . . ?
H30A C30 H30B 109.5 . . ?
C28 C30 H30C 109.5 . . ?
H30A C30 H30C 109.5 . . ?
H30B C30 H30C 109.5 . . ?
C1 C4 H4A 109.5 . . ?
C1 C4 H4B 109.5 . . ?
H4A C4 H4B 109.5 . . ?
C1 C4 H4C 109.5 . . ?
H4A C4 H4C 109.5 . . ?
H4B C4 H4C 109.5 . . ?
C3 C5 H5A 109.5 . . ?
C3 C5 H5B 109.5 . . ?
H5A C5 H5B 109.5 . . ?
C3 C5 H5C 109.5 . . ?
H5A C5 H5C 109.5 . . ?
H5B C5 H5C 109.5 . . ?
C11 C12 C13 122.7(3) . . ?
C11 C12 H12A 118.7 . . ?
C13 C12 H12A 118.7 . . ?

loop_
_geom_torsion_atom_site_label_1
_geom_torsion_atom_site_label_2
_geom_torsion_atom_site_label_3
_geom_torsion_atom_site_label_4
_geom_torsion
_geom_torsion_site_symmetry_1
_geom_torsion_site_symmetry_2
_geom_torsion_site_symmetry_3
_geom_torsion_site_symmetry_4
_geom_torsion_publ_flag
C22 O7 C28 O8 -23.2(3) . . . . ?
C22 O7 C28 C30 -139.7(2) . . . . ?
C22 O7 C28 C29 93.5(3) . . . . ?
C23 O8 C28 O7 22.7(3) . . . . ?
C23 O8 C28 C30 140.2(2) . . . . ?
C23 O8 C28 C29 -93.5(3) . . . . ?
Dy1 O4 C8 C7 -10.7(4) . . . . ?
Dy1 O4 C8 C9 168.9(2) . . . . ?
Dy1 O2 C3 C2 6.7(5) . . . . ?
Dy1 O2 C3 C5 -174.36(18) . . . . ?
C28 O7 C22 C23 15.3(3) . . . . ?
C28 O7 C22 C21 -163.2(3) . . . . ?
C20 C21 C22 C23 -179.8(3) . . . . ?
C17 C21 C22 C23 -0.7(4) . . . . ?
C20 C21 C22 O7 -1.5(5) . . . . ?
C17 C21 C22 O7 177.6(3) . . . . ?
O4 C8 C7 C6 4.1(5) . . . . ?
C9 C8 C7 C6 -175.4(3) . . . . ?
Dy1 O1 C1 C2 0.3(5) . . . . ?
Dy1 O1 C1 C4 179.43(19) . . . . ?
C17 C21 C20 C19 -1.2(4) . . . . ?
C22 C21 C20 C19 178.0(3) . . . . ?
O7 C22 C23 O8 -0.7(4) . . . . ?
C21 C22 C23 O8 177.8(3) . . . . ?
O7 C22 C23 C24 178.5(3) . . . . ?
C21 C22 C23 C24 -3.0(5) . . . . ?
C28 O8 C23 C22 -14.2(3) . . . . ?
C28 O8 C23 C24 166.7(3) . . . . ?
C25 C24 C23 C22 -174.4(3) . . . . ?
C16 C24 C23 C22 4.9(4) . . . . ?
C25 C24 C23 O8 4.7(5) . . . . ?
C16 C24 C23 O8 -176.0(3) . . . . ?
C23 C24 C25 C26 -178.6(3) . . . . ?
C16 C24 C25 C26 2.1(4) . . . . ?
C16 N2 C27 C26 1.0(4) . . . . ?
Dy1 N2 C27 C26 -175.6(2) . . . . ?
Dy1 O6 C13 C12 -24.1(4) . . . . ?
Dy1 O6 C13 C14 154.86(18) . . . . ?
C18 N1 C17 C21 0.3(4) . . . . ?
Dy1 N1 C17 C21 179.8(2) . . . . ?
C18 N1 C17 C16 180.0(2) . . . . ?
Dy1 N1 C17 C16 -0.5(3) . . . . ?
C20 C21 C17 N1 0.9(4) . . . . ?
C22 C21 C17 N1 -178.3(3) . . . . ?
C20 C21 C17 C16 -178.7(3) . . . . ?
C22 C21 C17 C16 2.1(4) . . . . ?
C27 N2 C16 C24 3.1(4) . . . . ?
Dy1 N2 C16 C24 179.7(2) . . . . ?
C27 N2 C16 C17 -177.6(2) . . . . ?
Dy1 N2 C16 C17 -0.9(3) . . . . ?
C23 C24 C16 N2 176.0(3) . . . . ?
C25 C24 C16 N2 -4.6(4) . . . . ?
C23 C24 C16 C17 -3.3(4) . . . . ?
C25 C24 C16 C17 176.0(3) . . . . ?
N1 C17 C16 N2 0.9(4) . . . . ?
C21 C17 C16 N2 -179.4(3) . . . . ?
N1 C17 C16 C24 -179.7(2) . . . . ?
C21 C17 C16 C24 0.0(4) . . . . ?
Dy1 O5 C11 C12 31.6(4) . . . . ?
Dy1 O5 C11 C15 -147.73(19) . . . . ?
Dy1 O3 C6 C7 -1.4(4) . . . . ?
Dy1 O3 C6 C10 -178.76(17) . . . . ?
C8 C7 C6 O3 1.7(5) . . . . ?
C8 C7 C6 C10 178.9(3) . . . . ?
O2 C3 C2 C1 -1.9(5) . . . . ?
C5 C3 C2 C1 179.1(3) . . . . ?
O1 C1 C2 C3 -1.4(5) . . . . ?
C4 C1 C2 C3 179.5(3) . . . . ?
C21 C20 C19 C18 0.2(4) . . . . ?
C17 N1 C18 C19 -1.3(4) . . . . ?
Dy1 N1 C18 C19 179.1(2) . . . . ?
C20 C19 C18 N1 1.1(5) . . . . ?
C24 C25 C26 C27 1.7(4) . . . . ?
N2 C27 C26 C25 -3.4(5) . . . . ?
O5 C11 C12 C13 -1.0(5) . . . . ?
C15 C11 C12 C13 178.4(3) . . . . ?
O6 C13 C12 C11 -3.2(5) . . . . ?
C14 C13 C12 C11 177.8(3) . . . . ?

_refine_diff_density_max         1.126
_refine_diff_density_min         -1.095
_refine_diff_density_rms         0.136

_shelx_res_file                  
;
TITL  SIR92 run in space group P -1
    shelx.res
    created by SHELXL-2018/3 at 15:49:04 on 05-Oct-2021
CELL   0.71073    9.5844   9.9719  15.9368  84.771  76.665  79.950
ZERR    2    0.0003   0.0003   0.0005   0.003   0.003   0.003
LATT  1
SFAC    C   H   N   O   DY
UNIT    60  66   4  16   2
MERG    2
L.S.   20
ACTA
BOND   $H
CONF
TEMP     25.0
FMAP   2
PLAN    25

WGHT    0.010200
FVAR       3.20579
DY1   5    0.784495    0.121390    0.787720    11.00000    0.00994    0.01485 =
         0.01178   -0.00115   -0.00233   -0.00105
O6    4    0.709360    0.075543    0.664717    11.00000    0.01372    0.02232 =
         0.01287    0.00018   -0.00296   -0.00556
O7    4    1.512107   -0.241205    0.649502    11.00000    0.00802    0.02186 =
         0.02782   -0.00971   -0.00361   -0.00029
O5    4    0.873659    0.271896    0.674576    11.00000    0.01327    0.01697 =
         0.01341   -0.00029   -0.00305   -0.00145
O3    4    0.603537   -0.006926    0.842659    11.00000    0.01481    0.01937 =
         0.01521    0.00048   -0.00227   -0.00297
O8    4    1.382486   -0.411141    0.635268    11.00000    0.00989    0.01744 =
         0.02578   -0.00563   -0.00231    0.00056
O4    4    0.845240    0.001905    0.906748    11.00000    0.01717    0.02031 =
         0.01384    0.00090   -0.00476   -0.00349
N1    3    1.067157    0.078652    0.750992    11.00000    0.01058    0.01585 =
         0.01404   -0.00241   -0.00239   -0.00134
O1    4    0.577161    0.283938    0.816967    11.00000    0.01215    0.01792 =
         0.02174   -0.00351    0.00007    0.00016
O2    4    0.841074    0.288974    0.860231    11.00000    0.01752    0.01753 =
         0.01833   -0.00620   -0.00416    0.00103
N2    3    0.915463   -0.122015    0.737873    11.00000    0.00976    0.01883 =
         0.01276   -0.00201   -0.00304   -0.00237
C9    1    0.893652   -0.156998    1.018925    11.00000    0.03730    0.03436 =
         0.03261    0.01028   -0.02210   -0.01385
AFIX 137
H9A   2    0.906529   -0.088667    1.053952    11.00000   -1.50000
H9B   2    0.986469   -0.196607    0.986083    11.00000   -1.50000
H9C   2    0.848726   -0.226726    1.055360    11.00000   -1.50000
AFIX   0
C28   1    1.522262   -0.362920    0.602053    11.00000    0.01105    0.01917 =
         0.02595   -0.00805   -0.00281   -0.00096
C8    1    0.798938   -0.093085    0.958732    11.00000    0.02480    0.01721 =
         0.01487   -0.00355   -0.00617    0.00043
C3    1    0.779446    0.403978    0.887471    11.00000    0.02024    0.01777 =
         0.01215   -0.00018   -0.00367   -0.00434
C21   1    1.297941   -0.066907    0.704451    11.00000    0.01373    0.01673 =
         0.01309    0.00009   -0.00395   -0.00105
C24   1    1.137577   -0.281191    0.691564    11.00000    0.01265    0.01689 =
         0.01466   -0.00061   -0.00457   -0.00217
C22   1    1.365146   -0.197723    0.675427    11.00000    0.00985    0.01857 =
         0.01826   -0.00202   -0.00249   -0.00057
C7    1    0.667611   -0.139924    0.961648    11.00000    0.02646    0.02038 =
         0.01751    0.00222   -0.00586   -0.00744
AFIX  43
H7A   2    0.639620   -0.205942    1.004387    11.00000   -1.20000
AFIX   0
C1    1    0.541954    0.397500    0.852162    11.00000    0.01456    0.01775 =
         0.01621    0.00300    0.00102   -0.00027
C20   1    1.373203    0.038495    0.712966    11.00000    0.01111    0.02505 =
         0.01714   -0.00507   -0.00261   -0.00336
AFIX  43
H20A  2    1.474152    0.025270    0.701095    11.00000   -1.20000
AFIX   0
C23   1    1.289939   -0.296656    0.667730    11.00000    0.01400    0.01588 =
         0.01632   -0.00282   -0.00392   -0.00028
C29   1    1.537309   -0.321238    0.507268    11.00000    0.01992    0.02010 =
         0.02460   -0.00390   -0.00473   -0.00230
AFIX 137
H29A  2    1.447666   -0.268650    0.498059    11.00000   -1.50000
H29B  2    1.560045   -0.401269    0.474401    11.00000   -1.50000
H29C  2    1.613780   -0.267301    0.489099    11.00000   -1.50000
AFIX   0
C14   1    0.723637   -0.009032    0.528912    11.00000    0.02750    0.02557 =
         0.01758    0.00042   -0.00892   -0.00844
AFIX 137
H14A  2    0.735956   -0.101777    0.551698    11.00000   -1.50000
H14B  2    0.782511   -0.003261    0.471535    11.00000   -1.50000
H14C  2    0.623465    0.020959    0.527304    11.00000   -1.50000
AFIX   0
C25   1    1.055464   -0.385114    0.691478    11.00000    0.01903    0.01501 =
         0.01819   -0.00332   -0.00512   -0.00197
AFIX  43
H25A  2    1.101123   -0.472361    0.676116    11.00000   -1.20000
AFIX   0
C27   1    0.841607   -0.222037    0.735042    11.00000    0.01132    0.02356 =
         0.01447   -0.00189   -0.00274   -0.00515
AFIX  43
H27A  2    0.740733   -0.202498    0.747445    11.00000   -1.20000
AFIX   0
C13   1    0.769376    0.080911    0.586051    11.00000    0.01672    0.01593 =
         0.01770   -0.00074   -0.00759    0.00103
C17   1    1.144509   -0.043126    0.724713    11.00000    0.00963    0.01775 =
         0.01081    0.00179   -0.00416   -0.00238
C16   1    1.063067   -0.150736    0.718368    11.00000    0.01233    0.01669 =
         0.00899   -0.00088   -0.00197   -0.00068
C11   1    0.921794    0.251673    0.595606    11.00000    0.01457    0.01363 =
         0.02077    0.00303   -0.00458    0.00043
C6    1    0.577183   -0.094194    0.905041    11.00000    0.01520    0.01525 =
         0.01631   -0.00407    0.00085   -0.00167
C2    1    0.635447    0.460113    0.886216    11.00000    0.02027    0.01465 =
         0.02339   -0.00284   -0.00294   -0.00035
AFIX  43
H2A   2    0.599288    0.544665    0.909541    11.00000   -1.20000
AFIX   0
C15   1    1.040558    0.331243    0.548814    11.00000    0.02778    0.02309 =
         0.02037    0.00062   -0.00039   -0.01032
AFIX 137
H15A  2    1.013124    0.425246    0.562679    11.00000   -1.50000
H15B  2    1.054396    0.324509    0.487644    11.00000   -1.50000
H15C  2    1.129379    0.294372    0.566480    11.00000   -1.50000
AFIX   0
C19   1    1.293439    0.161102    0.739242    11.00000    0.01475    0.02200 =
         0.02162   -0.00598   -0.00516   -0.00527
AFIX  43
H19A  2    1.339863    0.232981    0.745312    11.00000   -1.20000
AFIX   0
C18   1    1.141849    0.177662    0.756896    11.00000    0.01769    0.01451 =
         0.01917   -0.00294   -0.00347   -0.00383
AFIX  43
H18A  2    1.089936    0.262306    0.773703    11.00000   -1.20000
AFIX   0
C10   1    0.439766   -0.153377    0.913124    11.00000    0.02197    0.02135 =
         0.02503    0.00020   -0.00093   -0.00921
AFIX 137
H10A  2    0.361220   -0.081098    0.907927    11.00000   -1.50000
H10B  2    0.417370   -0.201275    0.968380    11.00000   -1.50000
H10C  2    0.453318   -0.215397    0.868204    11.00000   -1.50000
AFIX   0
C26   1    0.907633   -0.355691    0.714329    11.00000    0.01641    0.01834 =
         0.01710    0.00063   -0.00411   -0.00843
AFIX  43
H26A  2    0.851203   -0.423344    0.716175    11.00000   -1.20000
AFIX   0
C30   1    1.640796   -0.470787    0.623199    11.00000    0.01262    0.02417 =
         0.03034   -0.00558   -0.00753    0.00146
AFIX 137
H30A  2    1.625583   -0.487146    0.684694    11.00000   -1.50000
H30B  2    1.732950   -0.440828    0.601424    11.00000   -1.50000
H30C  2    1.639797   -0.553494    0.597025    11.00000   -1.50000
AFIX   0
C4    1    0.388807    0.468815    0.855577    11.00000    0.01445    0.01922 =
         0.03068   -0.00169   -0.00050    0.00170
AFIX 137
H4A   2    0.321869    0.408279    0.882570    11.00000   -1.50000
H4B   2    0.376226    0.495024    0.797985    11.00000   -1.50000
H4C   2    0.370727    0.548592    0.888352    11.00000   -1.50000
AFIX   0
C5    1    0.869215    0.483298    0.924978    11.00000    0.02596    0.01974 =
         0.02542   -0.00597   -0.00727   -0.00331
AFIX 137
H5A   2    0.963898    0.480052    0.887739    11.00000   -1.50000
H5B   2    0.878370    0.443802    0.981061    11.00000   -1.50000
H5C   2    0.822398    0.576424    0.929960    11.00000   -1.50000
AFIX   0
C12   1    0.876294    0.162159    0.548423    11.00000    0.02130    0.01900 =
         0.01544   -0.00240   -0.00058   -0.00276
AFIX  43
H12A  2    0.918381    0.156125    0.489882    11.00000   -1.20000

AFIX   0
HKLF      4




REM   SIR92 run in space group P -1
REM wR2 = 0.0583, GooF = S = 1.001, Restrained GooF = 1.001 for all data
REM R1 = 0.0327 for 7529 Fo > 4sig(Fo) and 0.0404 for all 8538 data
REM 378 parameters refined using 0 restraints

END

WGHT      0.0087      0.0000

REM Highest difference peak  1.126,  deepest hole -1.095,  1-sigma level  0.136
Q1    1   1.6439 -0.3647  0.6402  11.00000  0.05    1.13
Q2    1   0.7183  0.1067  0.7577  11.00000  0.05    0.89
Q3    1   0.8597  0.1068  0.7404  11.00000  0.05    0.88
Q4    1   0.7354  0.0547  0.8199  11.00000  0.05    0.85
Q5    1   0.7144  0.1613  0.8258  11.00000  0.05    0.83
Q6    1   0.8428  0.1452  0.8198  11.00000  0.05    0.78
Q7    1   0.8190  0.0358  0.7529  11.00000  0.05    0.71
Q8    1   0.8474  0.1974  0.7515  11.00000  0.05    0.71
Q9    1   1.0915 -0.3297  0.6837  11.00000  0.05    0.66
Q10   1   1.3186 -0.1251  0.6732  11.00000  0.05    0.62
Q11   1   0.7459  0.2183  0.7876  11.00000  0.05    0.62
Q12   1   0.8039  0.3223  0.8894  11.00000  0.05    0.61
Q13   1   0.8655  0.1971  0.7015  11.00000  0.05    0.60
Q14   1   0.8459 -0.1262  0.9860  11.00000  0.05    0.58
Q15   1   0.9919 -0.3580  0.7252  11.00000  0.05    0.57
Q16   1   0.6271 -0.1544  0.9283  11.00000  0.05    0.57
Q17   1   0.8139 -0.0061  0.8576  11.00000  0.05    0.55
Q18   1   1.3241  0.0837  0.7420  11.00000  0.05    0.52
Q19   1   1.3309 -0.2656  0.6906  11.00000  0.05    0.52
Q20   1   0.9769  0.2838  0.5769  11.00000  0.05    0.51
Q21   1   0.8978 -0.2890  0.7107  11.00000  0.05    0.50
Q22   1   1.1189  0.3201  0.6044  11.00000  0.05    0.50
Q23   1   1.0953 -0.2310  0.6897  11.00000  0.05    0.50
Q24   1   1.3385 -0.3630  0.5236  11.00000  0.05    0.50
Q25   1   1.5806 -0.4032  0.6097  11.00000  0.05    0.50
;
_shelx_res_checksum              6513

_shelx_hkl_file                  
;
 -13  -4  -7-5.57497 441.333   3
 -13  -4  -6 17275.2 2185.19   3
 -13  -4  -5 3750.40 1017.72   3
 -13  -4  -4 3379.88 1074.52   3
 -13  -4  -3 10943.4 1748.69   3
 -13  -3  -8 4015.89 1084.93   3
 -13  -3  -7 9049.98 1604.95   3
 -13  -3  -6 239.242 588.536   3
 -13  -3  -5 12781.0 1884.09   3
 -13  -3  -4 1745.80 677.442   3
 -13  -3  -3 16778.7 2144.62   3
 -13  -3  -2 17618.0 2185.80   3
 -13  -2  -8 1479.01 853.250   3
 -13  -2  -7 19383.3 2340.81   3
 -13  -2  -6 10736.6 1766.04   3
 -13  -2  -5 11258.8 1771.23   3
 -13  -2  -4 12320.8 1843.87   3
 -13  -2  -3 5226.33 1223.33   3
 -13  -2  -2 5926.52 1273.76   3
 -13  -2  -1 1807.11 714.860   3
 -13  -1  -8 9457.08 1706.05   3
 -13  -1  -7 7221.74 1443.72   3
 -13  -1  -6 10610.2 1758.82   3
 -13  -1  -5 606.814 622.019   3
 -13  -1  -4 10067.1 1668.49   3
 -13  -1  -3 2319.73 863.699   3
 -13  -1  -2 9985.19 1642.79   3
 -13  -1  -1 3844.35 1012.75   3
 -13  -1   0 6831.63 1376.18   3
 -13   0  -7 641.480 546.461   3
 -13   0  -6 14046.0 1993.92   3
 -13   0  -5 3897.74 1089.61   3
 -13   0  -4 9482.07 1613.52   3
 -13   0  -3 5878.12 1292.27   3
 -13   0  -2-134.031 407.614   3
 -13   0  -1 3942.48 1054.18   3
 -13   0   0 6574.91 1331.75   3
 -13   1  -6 2007.10 764.471   3
 -13   1  -5 8252.99 1529.78   3
 -13   1  -4-470.971 641.678   3
 -13   1  -3 5058.35 1213.80   3
 -13   1  -2 22651.5 2441.01   3
 -13   1  -1 2028.61 761.733   3
 -13   1   0 27290.6 2660.84   3
 -13   2  -5 5314.33 1247.95   3
 -13   2  -4 10592.0 1695.81   3
 -13   2  -3 942.529 523.462   3
 -13   2  -2 12808.2 1829.80   3
 -13   2  -1 829.569 594.946   3
 -13   2   0 14655.7 1937.55   3
 -13   3  -2 9359.80 1484.43   3
 -12  -8 -11 7599.90 1456.87   3
 -12  -8 -10 246.929 464.812   3
 -12  -8  -9 17234.6 2109.99   3
 -12  -8  -8 3944.93 1011.19   3
 -12  -8  -7 853.271 555.039   3
 -12  -8  -6 7726.22 1388.22   3
 -12  -8  -5 3477.28 970.892   3
 -12  -8  -4 14437.4 1944.72   3
 -12  -8  -3-183.578 574.128   3
 -12  -7 -12-574.708 702.668   3
 -12  -7 -11 3911.93 1048.30   3
 -12  -7 -10 11555.2 1763.93   3
 -12  -7  -9 2892.92 928.954   3
 -12  -7  -8 28825.8 2706.44   3
 -12  -7  -7 609.508 430.955   3
 -12  -7  -6 17919.8 2151.63   3
 -12  -7  -5-939.971 596.264   3
 -12  -7  -4 12379.7 1784.79   3
 -12  -7  -3 11897.9 1761.25   3
 -12  -7  -2 15179.0 2014.47   3
 -12  -7  -1 22602.0 2427.97   3
 -12  -6 -13 2905.90 993.883   3
 -12  -6 -12 17069.9 2158.53   3
 -12  -6 -11-852.086 551.309   3
 -12  -6 -10 16218.2 2068.93   3
 -12  -6  -9 266.333 427.256   3
 -12  -6  -8 21745.2 2344.64   3
 -12  -6  -7 7248.43 1389.84   3
 -12  -6  -6 18942.4 2208.94   3
 -12  -6  -5 18979.8 2188.97   3
 -12  -6  -4 328.753 475.505   3
 -12  -6  -3 5002.60 1157.14   3
 -12  -6  -2 173.824 445.202   3
 -12  -6  -1 13453.8 1861.78   3
 -12  -6   0 2601.20 897.904   3
 -12  -6   1 3964.93 1021.70   3
 -12  -5 -13 457.324 558.887   3
 -12  -5 -12 10719.2 1740.41   3
 -12  -5 -11 1537.47 791.811   3
 -12  -5 -10 8143.21 1462.40   3
 -12  -5  -9 17629.4 2139.16   3
 -12  -5  -8 2635.65 883.462   3
 -12  -5  -7 25216.0 2523.38   3
 -12  -5  -6 964.885 542.699   3
 -12  -5  -5 20691.0 2272.60   3
 -12  -5  -4 5155.31 1157.13   3
 -12  -5  -3 6814.66 1344.57   3
 -12  -5  -2 10515.5 1610.09   3
 -12  -5  -1 7387.60 1397.22   3
 -12  -5   0 13570.1 1850.96   3
 -12  -5   1 258.799 528.747   3
 -12  -5   2 19439.9 2264.74   3
 -12  -4 -13 6592.96 1376.77   3
 -12  -4 -12 6337.14 1349.20   3
 -12  -4 -11 19680.0 2311.31   3
 -12  -4 -10 285.709 466.960   3
 -12  -4  -9 28725.5 2733.60   3
 -12  -4  -8 8514.59 1499.59   3
 -12  -4  -7 21786.8 2353.34   3
 -12  -4  -6 9733.95 1572.53   3
 -12  -4  -5 17007.9 2049.19   3
 -12  -4  -4 16728.7 2021.42   3
 -12  -4  -3 2819.06 896.866   3
 -12  -4  -2 10285.4 1610.32   3
 -12  -4  -1 845.309 565.593   3
 -12  -4   0 10514.4 1628.30   3
 -12  -4   1 3832.54 1007.24   3
 -12  -4   2 4655.61 1150.06   3
 -12  -4   3 14285.0 1936.72   3
 -12  -3 -13 22296.0 2520.73   3
 -12  -3 -12 874.888 642.517   3
 -12  -3 -11 22330.1 2457.76   3
 -12  -3 -10 8333.66 1447.49   3
 -12  -3  -9 15296.2 2011.77   3
 -12  -3  -8 18636.2 2185.90   3
 -12  -3  -7 5113.22 1233.11   3
 -12  -3  -6 20912.6 2301.13   3
 -12  -3  -5 504.964 524.724   3
 -12  -3  -4 9786.74 1606.43   3
 -12  -3  -3 2428.85 811.030   3
 -12  -3  -2 9535.85 1530.63   3
 -12  -3  -1 12424.7 1745.97   3
 -12  -3   0 29.3698 490.972   3
 -12  -3   1 31505.2 2815.78   3
 -12  -3   2 2968.54 882.196   3
 -12  -3   3 20827.3 2297.83   3
 -12  -3   4 5713.00 1240.21   3
 -12  -2 -13 17425.6 2267.93   3
 -12  -2 -12 15012.9 2085.11   3
 -12  -2 -11 4550.18 1125.56   3
 -12  -2 -10 18702.1 2256.76   3
 -12  -2  -9-2144.18 837.022   3
 -12  -2  -8 19424.0 2232.02   3
 -12  -2  -7 1606.81 794.351   3
 -12  -2  -6 12775.9 1784.01   3
 -12  -2  -5 23154.4 2386.60   3
 -12  -2  -4 2181.17 758.750   3
 -12  -2  -3 23161.5 2365.29   3
 -12  -2  -2 1972.27 757.453   3
 -12  -2  -1 29650.2 2667.98   3
 -12  -2   0 9113.80 1478.77   3
 -12  -2   1 15565.0 1947.58   3
 -12  -2   2 4879.27 1071.64   3
 -12  -2   3 2504.92 817.321   3
 -12  -2   4 8444.86 1469.70   3
 -12  -2   5 1285.73 644.378   3
 -12  -1 -13 296.662 504.641   3
 -12  -1 -12 22481.0 2532.54   3
 -12  -1 -11 4346.90 1154.62   3
 -12  -1 -10 13977.2 1973.86   3
 -12  -1  -9 13837.5 1905.57   3
 -12  -1  -8 13921.9 1908.73   3
 -12  -1  -7 11861.0 1755.17   3
 -12  -1  -6-102.622 523.623   3
 -12  -1  -5 41453.0 3208.38   3
 -12  -1  -4 12877.4 1786.00   3
 -12  -1  -3 17665.8 2069.78   3
 -12  -1  -2 16942.7 2040.32   3
 -12  -1  -1 2462.76 834.522   3
 -12  -1   0 13380.9 1801.71   3
 -12  -1   1 646.074 503.631   3
 -12  -1   2 20933.5 2253.10   3
 -12  -1   3-160.885 550.428   3
 -12  -1   4 11856.0 1764.08   3
 -12  -1   5 392.034 530.379   3
 -12   0 -12 9304.33 1686.17   3
 -12   0 -11 13850.6 1959.45   3
 -12   0 -10 78.6581 472.676   3
 -12   0  -9 36648.6 3152.88   3
 -12   0  -8 402.105 428.792   3
 -12   0  -7 16256.1 2050.38   3
 -12   0  -6 4659.41 1140.18   3
 -12   0  -5 4780.18 1089.07   3
 -12   0  -4 21384.3 2286.12   3
 -12   0  -3 1817.80 752.325   3
 -12   0  -2 25331.4 2465.58   3
 -12   0  -1 1452.13 621.583   3
 -12   0   0 25519.1 2455.40   3
 -12   0   1 1012.76 562.877   3
 -12   0   2 5189.19 1120.51   3
 -12   0   3 3660.52 955.613   3
 -12   0   4-22.5403 452.678   3
 -12   0   5 4871.42 1096.76   3
 -12   0   6 7963.44 1432.91   3
 -12   1 -11 13925.5 2044.36   3
 -12   1 -10 8765.60 1590.32   3
 -12   1  -9 7980.17 1532.36   3
 -12   1  -8 9252.33 1621.02   3
 -12   1  -7 3435.73 1008.13   3
 -12   1  -6 16225.8 2031.80   3
 -12   1  -5-11.5171 422.560   3
 -12   1  -4 22668.5 2370.81   3
 -12   1  -3 4634.87 1062.30   3
 -12   1  -2 14714.5 1900.73   3
 -12   1  -1 24582.8 2406.96   3
 -12   1   0-183.691 476.855   3
 -12   1   1 16364.6 1957.18   3
 -12   1   2 749.650 530.741   3
 -12   1   3 10760.3 1602.48   3
 -12   1   4 2838.96 872.914   3
 -12   1   5 5554.14 1192.05   3
 -12   1   6 13501.9 1782.08   3
 -12   2 -11 2145.04 945.964   3
 -12   2 -10 20303.9 2410.79   3
 -12   2  -9 222.228 536.020   3
 -12   2  -8 19934.6 2315.83   3
 -12   2  -7 1264.58 566.901   3
 -12   2  -6 16248.0 2027.55   3
 -12   2  -5 17213.9 2107.80   3
 -12   2  -4 1675.26 685.496   3
 -12   2  -3 22891.0 2327.49   3
 -12   2  -2 1168.56 663.828   3
 -12   2  -1 13340.8 1769.95   3
 -12   2   0 1430.60 686.229   3
 -12   2   1 12237.0 1670.98   3
 -12   2   2 6773.28 1261.03   3
 -12   2   3 2696.47 860.194   3
 -12   2   4 13099.6 1734.57   3
 -12   3 -10 11852.2 1860.63   3
 -12   3  -9 5976.32 1345.23   3
 -12   3  -8 4453.14 1182.88   3
 -12   3  -7 19710.3 2280.70   3
 -12   3  -6-644.722 521.686   3
 -12   3  -5 12018.3 1761.91   3
 -12   3  -4-114.136 382.539   3
 -12   3  -3 6490.12 1286.38   3
 -12   3  -2 4358.48 1049.86   3
 -12   3  -1 8650.78 1430.63   3
 -12   3   0 21995.5 2237.16   3
 -12   3   1-166.713 408.079   3
 -12   4  -9 13076.4 1915.36   3
 -12   4  -8 610.662 441.643   3
 -12   4  -7 10241.8 1680.33   3
 -12   4  -6 3930.25 1027.75   3
 -12   4  -5 3901.31 1070.07   3
 -12   4  -4 13745.7 1871.38   3
 -12   4  -3 4088.45 1016.42   3
 -12   5  -7 3359.06 940.669   3
 -11 -11  -4 4484.66 1038.81   3
 -11 -10  -8 3015.13 845.613   3
 -11 -10  -7 5522.13 1104.34   3
 -11 -10  -6 4422.93 1022.01   3
 -11 -10  -5 201.639 418.168   3
 -11 -10  -4 17461.1 2034.31   3
 -11 -10  -3 1535.43 694.640   3
 -11 -10  -2 12604.5 1764.93   3
 -11  -9 -11 14037.8 1849.14   3
 -11  -9 -10 4226.46 1035.23   3
 -11  -9  -9 285.019 404.238   3
 -11  -9  -8 6796.45 1261.69   3
 -11  -9  -7-328.804 472.322   3
 -11  -9  -6 16026.4 1944.02   3
 -11  -9  -5 2398.31 783.962   3
 -11  -9  -4 19151.0 2128.42   3
 -11  -9  -3 8890.64 1498.51   3
 -11  -9  -2 1524.73 721.233   3
 -11  -9  -1 6144.23 1249.52   3
 -11  -9   0 3314.98 979.221   3
 -11  -9   1 7243.02 1412.03   3
 -11  -8 -14 6766.31 1256.95   3
 -11  -8 -13 5112.70 1124.69   3
 -11  -8 -12 7285.01 1369.27   3
 -11  -8 -11 1534.53 697.848   3
 -11  -8 -10 24479.6 2395.46   3
 -11  -8  -9 1669.45 720.418   3
 -11  -8  -8 26879.9 2489.60   3
 -11  -8  -7 6268.94 1184.53   3
 -11  -8  -6 4550.61 1065.68   3
 -11  -8  -5 2266.38 752.876   3
 -11  -8  -4-155.641 433.807   3
 -11  -8  -3 10346.9 1570.26   3
 -11  -8  -2 7269.92 1325.13   3
 -11  -8  -1 15297.5 1919.00   3
 -11  -8   0 12917.4 1783.22   3
 -11  -8   1 239.458 467.340   3
 -11  -8   2 22363.5 2378.83   3
 -11  -7 -16 11823.2 1805.55   3
 -11  -7 -15 412.191 531.270   3
 -11  -7 -14 27236.4 2627.72   3
 -11  -7 -13 225.362 416.130   3
 -11  -7 -12 25973.6 2520.93   3
 -11  -7 -11 6451.62 1238.52   3
 -11  -7 -10 6318.07 1237.70   3
 -11  -7  -9 10006.4 1541.62   3
 -11  -7  -8 995.444 519.443   3
 -11  -7  -7 9151.16 1478.52   3
 -11  -7  -6 2044.66 744.113   3
 -11  -7  -5 8097.45 1430.75   3
 -11  -7  -4 7110.89 1307.01   3
 -11  -7  -3 8027.54 1405.68   3
 -11  -7  -2 34382.6 2842.26   3
 -11  -7  -1 1393.55 712.019   3
 -11  -7   0 28436.9 2613.16   3
 -11  -7   1 5490.38 1204.09   3
 -11  -7   2 16649.7 2033.74   3
 -11  -7   3 10248.9 1628.22   3
 -11  -7   4 5810.22 1219.87   3
 -11  -6 -16 22727.1 2470.14   3
 -11  -6 -15 1962.45 840.008   3
 -11  -6 -14 11295.9 1784.09   3
 -11  -6 -13 12402.8 1755.79   3
 -11  -6 -12 3206.27 930.406   3
 -11  -6 -11 12194.0 1719.49   3
 -11  -6 -10 792.150 411.870   3
 -11  -6  -9 9075.35 1480.01   3
 -11  -6  -8 4104.86 1005.85   3
 -11  -6  -7 14767.3 1865.26   3
 -11  -6  -6 28740.3 2565.70   3
 -11  -6  -5 5548.44 1170.34   3
 -11  -6  -4 17441.0 2000.75   3
 -11  -6  -3 2570.82 801.222   3
 -11  -6  -2 15397.7 1872.47   3
 -11  -6  -1 12748.6 1714.75   3
 -11  -6   0 7361.53 1326.84   3
 -11  -6   1 17362.3 2043.99   3
 -11  -6   2 909.591 658.484   3
 -11  -6   3 21350.6 2279.37   3
 -11  -6   4 751.161 585.418   3
 -11  -6   5 14324.9 1923.37   3
 -11  -5 -16 4432.47 1205.83   3
 -11  -5 -15 23530.0 2528.25   3
 -11  -5 -14 666.273 490.389   3
 -11  -5 -13 12565.6 1800.47   3
 -11  -5 -12-264.825 438.172   3
 -11  -5 -11 12112.0 1713.84   3
 -11  -5 -10 13100.1 1767.63   3
 -11  -5  -9 2160.76 791.457   3
 -11  -5  -8 37176.3 2933.03   3
 -11  -5  -7 72.1978 344.249   3
 -11  -5  -6 18688.9 2056.61   3
 -11  -5  -5 8078.38 1352.62   3
 -11  -5  -4 5672.30 1128.50   3
 -11  -5  -3 14124.2 1763.70   3
 -11  -5  -2 414.055 508.901   3
 -11  -5  -1 22873.5 2268.66   3
 -11  -5   0 632.152 473.342   3
 -11  -5   1 28792.8 2582.10   3
 -11  -5   2 3711.58 993.838   3
 -11  -5   3 23935.4 2395.39   3
 -11  -5   4 6845.07 1302.06   3
 -11  -5   5 8128.39 1460.36   3
 -11  -5   6 11800.4 1770.26   3
 -11  -4 -16 385.130 715.867   3
 -11  -4 -15 11685.2 1775.73   3
 -11  -4 -14 5589.60 1256.12   3
 -11  -4 -13 6799.01 1361.51   3
 -11  -4 -12 22795.1 2387.70   3
 -11  -4 -11 1727.05 725.973   3
 -11  -4 -10 27428.4 2558.62   3
 -11  -4  -9 3675.76 942.637   3
 -11  -4  -8 18442.1 2070.09   3
 -11  -4  -7 25634.0 2405.61   3
 -11  -4  -6 2593.74 874.834   3
 -11  -4  -5 23954.5 2319.18   3
 -11  -4  -4-124.338 376.152   3
 -11  -4  -3 19918.0 2104.90   3
 -11  -4  -2 1828.03 674.308   3
 -11  -4  -1 20264.7 2105.07   3
 -11  -4   0 8079.77 1382.67   3
 -11  -4   1 13839.1 1777.40   3
 -11  -4   2 21920.0 2259.92   3
 -11  -4   3 524.004 450.555   3
 -11  -4   4 15003.1 1882.27   3
 -11  -4   5 1963.03 787.049   3
 -11  -4   6 11230.9 1690.64   3
 -11  -4   7 7785.94 1458.85   3
 -11  -3 -16 12005.7 1835.68   3
 -11  -3 -15 1021.29 654.493   3
 -11  -3 -14 34996.8 3077.71   3
 -11  -3 -13-745.780 553.294   3
 -11  -3 -12 20402.4 2291.06   3
 -11  -3 -11 7046.04 1354.92   3
 -11  -3 -10 7357.27 1336.70   3
 -11  -3  -9 10407.6 1592.98   3
 -11  -3  -8 2164.78 806.620   3
 -11  -3  -7 25714.9 2442.59   3
 -11  -3  -6 1639.87 704.732   3
 -11  -3  -5 19882.4 2108.32   3
 -11  -3  -4 14326.9 1769.88   3
 -11  -3  -3 14533.5 1786.00   3
 -11  -3  -2 13901.4 1730.10   3
 -11  -3  -1 754.951 454.726   3
 -11  -3   0 28924.7 2508.43   3
 -11  -3   1 1156.47 619.031   3
 -11  -3   2 23859.8 2338.79   3
 -11  -3   3 11955.2 1651.64   3
 -11  -3   4 4748.86 1081.26   3
 -11  -3   5 20491.8 2200.96   3
 -11  -3   6 842.674 607.174   3
 -11  -3   7 32005.3 2808.35   3
 -11  -2 -16 21189.0 2489.27   3
 -11  -2 -15 2272.82 876.575   3
 -11  -2 -14 12610.2 1866.92   3
 -11  -2 -13 9228.79 1599.94   3
 -11  -2 -12 2925.40 930.541   3
 -11  -2 -11 14002.7 1871.28   3
 -11  -2 -10 940.637 589.378   3
 -11  -2  -9 25163.2 2445.72   3
 -11  -2  -8 923.290 575.065   3
 -11  -2  -7 16713.4 1946.58   3
 -11  -2  -6 13560.5 1738.39   3
 -11  -2  -5 2899.43 863.311   3
 -11  -2  -4 37723.8 2893.22   3
 -11  -2  -3 768.311 491.078   3
 -11  -2  -2 37841.8 2861.41   3
 -11  -2  -1 16219.0 1870.59   3
 -11  -2   0 20120.2 2075.33   3
 -11  -2   1 13271.3 1700.02   3
 -11  -2   2 1503.23 648.196   3
 -11  -2   3 28426.8 2501.90   3
 -11  -2   4 2327.08 781.361   3
 -11  -2   5 18227.7 2048.25   3
 -11  -2   6 10523.7 1609.38   3
 -11  -2   7 7543.69 1348.50   3
 -11  -2   8 9056.07 1507.09   3
 -11  -1 -15 7219.68 1468.96   3
 -11  -1 -14 164.642 443.620   3
 -11  -1 -13 21129.1 2396.84   3
 -11  -1 -12 2371.63 852.785   3
 -11  -1 -11 7446.47 1397.86   3
 -11  -1 -10 16802.6 2059.95   3
 -11  -1  -9 8400.09 1454.50   3
 -11  -1  -8 22247.0 2297.35   3
 -11  -1  -7 4846.36 1076.48   3
 -11  -1  -6 30420.5 2620.00   3
 -11  -1  -5 8162.12 1371.39   3
 -11  -1  -4 37620.0 2889.16   3
 -11  -1  -3 25710.2 2359.81   3
 -11  -1  -2 6249.18 1199.96   3
 -11  -1  -1 36327.0 2794.66   3
 -11  -1   0 1253.80 601.185   3
 -11  -1   1 28662.7 2485.22   3
 -11  -1   2 1611.11 619.394   3
 -11  -1   3 8547.33 1362.71   3
 -11  -1   4 12943.3 1725.01   3
 -11  -1   5 618.919 457.556   3
 -11  -1   6 24881.2 2385.61   3
 -11  -1   7-352.342 388.162   3
 -11  -1   8 23773.7 2386.64   3
 -11  -1   9 548.583 502.579   3
 -11   0 -14 4151.54 1123.78   3
 -11   0 -13 9295.98 1628.83   3
 -11   0 -12 23047.5 2488.18   3
 -11   0 -11 481.089 651.628   3
 -11   0 -10 28592.7 2685.82   3
 -11   0  -9 1490.89 716.093   3
 -11   0  -8 41053.1 3142.06   3
 -11   0  -7 5963.22 1205.69   3
 -11   0  -6 6698.27 1268.05   3
 -11   0  -5 25788.0 2396.85   3
 -11   0  -4 266.020 366.147   3
 -11   0  -3 28780.0 2489.69   3
 -11   0  -2 3707.75 912.230   3
 -11   0  -1 20011.9 2068.34   3
 -11   0   0 12999.8 1641.58   3
 -11   0   1 3993.18 916.344   3
 -11   0   2 15645.2 1847.66   3
 -11   0   3-431.541 544.092   3
 -11   0   4 20687.4 2140.69   3
 -11   0   5 2395.34 820.340   3
 -11   0   6 14401.8 1785.55   3
 -11   0   7 10417.2 1545.25   3
 -11   0   8 1952.05 694.724   3
 -11   0   9 15108.1 1924.93   3
 -11   1 -13 1090.35 726.643   3
 -11   1 -12 22493.9 2498.89   3
 -11   1 -11 8351.08 1490.03   3
 -11   1 -10 8749.36 1491.23   3
 -11   1  -9 34877.2 2949.22   3
 -11   1  -8 474.968 504.729   3
 -11   1  -7 20231.5 2174.46   3
 -11   1  -6 144.071 376.509   3
 -11   1  -5 14109.1 1780.56   3
 -11   1  -4 5412.80 1154.24   3
 -11   1  -3 10306.4 1514.77   3
 -11   1  -2 22332.0 2175.58   3
 -11   1  -1 1363.81 689.556   3
 -11   1   0 23127.0 2219.70   3
 -11   1   1 657.867 495.018   3
 -11   1   2 21978.5 2147.18   3
 -11   1   3 6532.93 1167.32   3
 -11   1   4 8378.87 1352.54   3
 -11   1   5 23220.7 2232.55   3
 -11   1   6 2735.13 814.358   3
 -11   1   7 16644.1 1938.39   3
 -11   1   8 85.1993 345.357   3
 -11   2 -13 12869.3 1958.37   3
 -11   2 -12 727.521 581.301   3
 -11   2 -11 23986.1 2533.55   3
 -11   2 -10 1545.74 774.617   3
 -11   2  -9 29182.6 2712.20   3
 -11   2  -8 4792.00 1131.10   3
 -11   2  -7 9835.07 1530.04   3
 -11   2  -6 16539.6 1943.50   3
 -11   2  -5 5335.83 1088.50   3
 -11   2  -4 20224.3 2105.99   3
 -11   2  -3 1466.78 630.394   3
 -11   2  -2 18727.5 2005.67   3
 -11   2  -1 5122.99 1052.34   3
 -11   2   0 13446.4 1674.13   3
 -11   2   1 13735.4 1677.68   3
 -11   2   2 2358.85 655.658   3
 -11   2   3 22433.7 2134.67   3
 -11   2   4 381.521 491.737   3
 -11   2   5 11710.0 1563.90   3
 -11   2   6 1252.53 589.579   3
 -11   3 -12-13.0648 486.556   3
 -11   3 -11 13426.4 1946.37   3
 -11   3 -10 5766.10 1262.36   3
 -11   3  -9 16388.0 2060.60   3
 -11   3  -8 29096.8 2693.75   3
 -11   3  -7 1158.44 619.462   3
 -11   3  -6 19732.0 2155.44   3
 -11   3  -5 2440.60 822.120   3
 -11   3  -4 6481.87 1205.43   3
 -11   3  -3 9585.53 1440.12   3
 -11   3  -2 7554.48 1299.62   3
 -11   3  -1 14423.0 1747.96   3
 -11   3   0 2737.75 785.196   3
 -11   3   1 17999.6 1908.12   3
 -11   3   2 1245.35 563.838   3
 -11   3   3 6289.39 1116.46   3
 -11   4 -12 26911.3 2804.80   3
 -11   4 -11 2213.41 959.310   3
 -11   4 -10 26797.9 2720.97   3
 -11   4  -9 939.729 661.954   3
 -11   4  -8 10170.0 1625.18   3
 -11   4  -7 7048.31 1355.42   3
 -11   4  -6 4510.81 1058.04   3
 -11   4  -5 21061.7 2210.10   3
 -11   4  -4 6752.91 1241.53   3
 -11   4  -3 20891.5 2134.77   3
 -11   4  -2 930.897 513.580   3
 -11   4  -1 13603.0 1685.19   3
 -11   4   0 4383.33 941.277   3
 -11   5 -11 2994.42 1005.12   3
 -11   5 -10 8109.76 1476.10   3
 -11   5  -9 13056.2 1862.99   3
 -11   5  -8 11394.6 1731.47   3
 -11   5  -7 14564.8 1900.94   3
 -11   5  -6 2817.33 862.012   3
 -11   5  -5 23403.5 2312.72   3
 -11   5  -4 3622.18 932.761   3
 -11   6 -10 8802.73 1578.27   3
 -11   6  -9 20213.5 2331.21   3
 -10 -11  -4 1339.40 678.906   3
 -10 -11  -3 13447.4 1722.88   3
 -10 -11  -2 69.3513 315.287   3
 -10 -11  -1 10788.0 1573.03   3
 -10 -11   0 3362.05 920.523   3
 -10 -10  -8 98.6113 410.730   3
 -10 -10  -7 13447.7 1660.57   3
 -10 -10  -6 260.996 413.708   3
 -10 -10  -5 24862.4 2288.42   3
 -10 -10  -4-12.8073 422.517   3
 -10 -10  -3 19376.7 2059.04   3
 -10 -10  -2 2745.05 855.750   3
 -10 -10  -1 3990.11 1009.31   3
 -10 -10   0 9706.95 1481.81   3
 -10 -10   1 319.612 336.966   3
 -10 -10   2 18979.7 2145.02   3
 -10  -9 -11 9074.33 1387.75   3
 -10  -9 -10-860.074 502.481   3
 -10  -9  -9 18623.0 1959.89   3
 -10  -9  -8 73.9442 330.842   3
 -10  -9  -7 17978.9 1909.55   3
 -10  -9  -6 2219.99 701.645   3
 -10  -9  -5 13017.9 1653.16   3
 -10  -9  -4 6149.56 1184.83   3
 -10  -9  -3 93.6724 416.161   3
 -10  -9  -2 30844.6 2620.06   3
 -10  -9  -1-17.5858 321.768   3
 -10  -9   0 25165.1 2373.88   3
 -10  -9   1 1039.98 542.525   3
 -10  -9   2 11354.9 1651.05   3
 -10  -9   3 7961.44 1398.10   3
 -10  -9   4-140.946 364.568   3
 -10  -8 -14 876.479 523.455   3
 -10  -8 -13 18917.6 2033.03   3
 -10  -8 -12 298.716 332.597   3
 -10  -8 -11 8785.61 1377.52   3
 -10  -8 -10 3393.51 898.742   3
 -10  -8  -9 13734.0 1731.95   3
 -10  -8  -8 15118.1 1751.54   3
 -10  -8  -7 6086.23 1123.13   3
 -10  -8  -6 24039.9 2224.75   3
 -10  -8  -5 625.927 399.184   3
 -10  -8  -4 26725.6 2348.59   3
 -10  -8  -3 393.460 296.810   3
 -10  -8  -2 23064.7 2200.47   3
 -10  -8  -1 6667.33 1234.84   3
 -10  -8   0 4669.05 1059.54   3
 -10  -8   1 10219.7 1509.45   3
 -10  -8   2 413.077 440.812   3
 -10  -8   3 24208.1 2399.96   3
 -10  -8   4 4177.91 1056.28   3
 -10  -8   5 1467.98 702.337   3
 -10  -7 -17 11738.9 1714.46   3
 -10  -7 -16 310.697 368.325   3
 -10  -7 -15 6329.23 1248.46   3
 -10  -7 -14-25.9501 440.748   3
 -10  -7 -13 23467.1 2298.31   3
 -10  -7 -12 7823.72 1309.15   3
 -10  -7 -11 5284.68 1068.92   3
 -10  -7 -10 26821.2 2398.32   3
 -10  -7  -9 790.857 509.622   3
 -10  -7  -8 34022.0 2653.10   3
 -10  -7  -7 520.639 444.264   3
 -10  -7  -6 24461.2 2237.31   3
 -10  -7  -5 3041.72 794.829   3
 -10  -7  -4 9250.29 1374.90   3
 -10  -7  -3 16970.8 1868.24   3
 -10  -7  -2 600.402 290.005   3
 -10  -7  -1 25336.7 2315.10   3
 -10  -7   0 1152.13 598.399   3
 -10  -7   1 10448.6 1515.72   3
 -10  -7   2 8038.64 1337.96   3
 -10  -7   3 10699.8 1584.64   3
 -10  -7   4 15258.2 1897.37   3
 -10  -7   5 885.533 419.037   3
 -10  -7   6 17186.9 2088.29   3
 -10  -6 -18 82.6103 441.151   3
 -10  -6 -17 20613.1 2276.29   3
 -10  -6 -16 115.882 458.356   3
 -10  -6 -15 10281.4 1605.50   3
 -10  -6 -14 15313.0 1899.52   3
 -10  -6 -13 7789.54 1341.41   3
 -10  -6 -12 19243.1 2080.03   3
 -10  -6 -11 436.230 436.131   3
 -10  -6 -10 16145.5 1852.74   3
 -10  -6  -9 11252.5 1541.08   3
 -10  -6  -8 15124.1 1742.16   3
 -10  -6  -7 33451.1 2645.92   3
 -10  -6  -6 6237.57 1138.91   3
 -10  -6  -5 20137.2 2015.16   3
 -10  -6  -4 748.262 473.505   3
 -10  -6  -3 19598.2 1980.33   3
 -10  -6  -2 7568.90 1255.50   3
 -10  -6  -1 5668.58 1092.87   3
 -10  -6   0 24869.5 2264.46   3
 -10  -6   1 583.234 420.413   3
 -10  -6   2 19337.9 2044.37   3
 -10  -6   3 402.595 398.768   3
 -10  -6   4 15325.6 1866.49   3
 -10  -6   5 6567.04 1260.62   3
 -10  -6   6 6504.71 1281.80   3
 -10  -6   7 35007.7 2960.05   3
 -10  -6   8 1857.07 719.121   3
 -10  -5 -18 9067.14 1600.15   3
 -10  -5 -17 4652.33 1181.03   3
 -10  -5 -16 24036.7 2454.05   3
 -10  -5 -15 1417.93 789.167   3
 -10  -5 -14 15187.7 1908.22   3
 -10  -5 -13-44.4926 428.421   3
 -10  -5 -12 7535.07 1349.97   3
 -10  -5 -11 8060.56 1384.90   3
 -10  -5 -10 13140.2 1672.69   3
 -10  -5  -9 37513.3 2844.17   3
 -10  -5  -8 388.896 395.560   3
 -10  -5  -7 26806.0 2340.48   3
 -10  -5  -6 9899.99 1407.39   3
 -10  -5  -5 9861.18 1412.69   3
 -10  -5  -4 24704.3 2233.57   3
 -10  -5  -3 2442.81 724.502   3
 -10  -5  -2 28257.6 2383.12   3
 -10  -5  -1 178.943 366.699   3
 -10  -5   0 24425.1 2240.66   3
 -10  -5   1 6855.06 1189.20   3
 -10  -5   2 8874.36 1373.19   3
 -10  -5   3 19496.2 2045.98   3
 -10  -5   4 20.3412 457.798   3
 -10  -5   5 22396.8 2262.86   3
 -10  -5   6-114.534 322.883   3
 -10  -5   7 19229.7 2167.14   3
 -10  -5   8 4900.88 1121.12   3
 -10  -4 -18 18852.6 2267.52   3
 -10  -4 -17-117.903 436.134   3
 -10  -4 -16 6902.45 1347.79   3
 -10  -4 -15 3432.52 1014.82   3
 -10  -4 -14 7082.86 1343.49   3
 -10  -4 -13 17511.1 2041.21   3
 -10  -4 -12 2818.17 883.024   3
 -10  -4 -11 18247.4 2004.85   3
 -10  -4 -10 2342.31 783.745   3
 -10  -4  -9 24013.4 2258.42   3
 -10  -4  -8 29724.2 2475.76   3
 -10  -4  -7 7626.83 1276.23   3
 -10  -4  -6 50185.8 3199.12   3
 -10  -4  -5 680.241 487.646   3
 -10  -4  -4 32261.2 2528.61   3
 -10  -4  -3 2728.42 818.804   3
 -10  -4  -2 13024.0 1592.44   3
 -10  -4  -1 7594.49 1264.77   3
 -10  -4   0 3895.78 916.578   3
 -10  -4   1 26513.0 2298.86   3
 -10  -4   2 62.3310 431.964   3
 -10  -4   3 17117.0 1885.48   3
 -10  -4   4 7994.57 1301.48   3
 -10  -4   5 8820.29 1451.22   3
 -10  -4   6 7571.23 1374.06   3
 -10  -4   7 7932.43 1369.21   3
 -10  -4   8 20765.2 2226.79   3
 -10  -4   9-237.357 491.016   3
 -10  -3 -16 5681.60 1272.59   3
 -10  -3 -15 40094.7 3189.54   3
 -10  -3 -14-1.61301 589.645   3
 -10  -3 -13 20695.3 2212.45   3
 -10  -3 -12 10177.6 1556.78   3
 -10  -3 -11 8994.73 1441.12   3
 -10  -3 -10 27379.8 2441.92   3
 -10  -3  -9 4869.84 1075.42   3
 -10  -3  -8 38745.7 2850.69   3
 -10  -3  -7 221.809 398.627   3
 -10  -3  -6 10879.4 1461.47   3
 -10  -3  -5 15227.6 1720.73   3
 -10  -3  -4 13410.4 1626.73   3
 -10  -3  -3 17667.3 1865.36   3
 -10  -3  -2-255.560 291.504   3
 -10  -3  -1 29453.9 2400.77   3
 -10  -3   0 1567.85 619.107   3
 -10  -3   1 26722.8 2296.37   3
 -10  -3   2 11311.0 1522.71   3
 -10  -3   3 3355.95 861.082   3
 -10  -3   4 22413.8 2152.39   3
 -10  -3   5 471.582 391.077   3
 -10  -3   6 29438.7 2531.71   3
 -10  -3   7 2417.26 754.377   3
 -10  -3   8 19795.3 2180.51   3
 -10  -3   9 5039.50 1091.22   3
 -10  -3  10 4989.65 1175.28   3
 -10  -2 -14 16828.4 2059.35   3
 -10  -2 -13 1524.28 723.150   3
 -10  -2 -12 14012.3 1845.22   3
 -10  -2 -11 501.831 516.150   3
 -10  -2 -10 11568.6 1597.94   3
 -10  -2  -9 7210.81 1283.98   3
 -10  -2  -8 25210.6 2318.58   3
 -10  -2  -7 4338.24 973.911   3
 -10  -2  -6 4961.93 1030.06   3
 -10  -2  -5 25405.5 2238.48   3
 -10  -2  -4 1795.98 631.392   3
 -10  -2  -3 41088.9 2835.03   3
 -10  -2  -2 13219.5 1572.66   3
 -10  -2  -1 16475.3 1782.81   3
 -10  -2   0 28810.1 2351.13   3
 -10  -2   1 6723.91 1127.30   3
 -10  -2   2 36015.9 2663.70   3
 -10  -2   3 1626.20 633.148   3
 -10  -2   4 23378.6 2204.17   3
 -10  -2   5 10399.1 1477.47   3
 -10  -2   6 5715.52 1127.65   3
 -10  -2   7 20362.1 2121.76   3
 -10  -2   8 1612.66 671.546   3
 -10  -2   9 14694.7 1849.85   3
 -10  -2  10 87.4319 470.683   3
 -10  -2  11 12107.2 1749.16   3
 -10  -1 -12 14509.7 1871.96   3
 -10  -1 -11 14403.8 1845.53   3
 -10  -1 -10 5187.47 1110.36   3
 -10  -1  -9 18994.5 2036.07   3
 -10  -1  -8 3769.99 927.798   3
 -10  -1  -7 25331.4 2283.22   3
 -10  -1  -6 1428.04 568.844   3
 -10  -1  -5 23581.4 2166.79   3
 -10  -1  -4 29506.9 2402.00   3
 -10  -1  -3 10084.0 1413.70   3
 -10  -1  -2 34504.5 2583.27   3
 -10  -1  -1 225.408 339.537   3
 -10  -1   0 48566.9 3051.19   3
 -10  -1   1 5333.29 1041.18   3
 -10  -1   2 22721.5 2080.36   3
 -10  -1   3 18050.3 1891.87   3
 -10  -1   4 2377.27 760.465   3
 -10  -1   5 25087.0 2241.64   3
 -10  -1   6 1511.38 617.498   3
 -10  -1   7 20054.3 2060.77   3
 -10  -1   8 5389.73 1105.14   3
 -10  -1   9 9327.30 1482.49   3
 -10  -1  10 13703.4 1798.76   3
 -10  -1  11 2034.44 776.658   3
 -10   0 -11 26822.0 2505.87   3
 -10   0 -10 7210.13 1314.87   3
 -10   0  -9 38399.2 2932.86   3
 -10   0  -8 12377.4 1651.97   3
 -10   0  -7 20621.2 2064.89   3
 -10   0  -6 16574.4 1823.34   3
 -10   0  -5 5023.72 1027.73   3
 -10   0  -4 20573.5 1982.19   3
 -10   0  -3 7604.85 1194.05   3
 -10   0  -2 29351.3 2362.53   3
 -10   0  -1 18807.5 1884.08   3
 -10   0   0 7212.39 1189.24   3
 -10   0   1 31372.0 2443.77   3
 -10   0   2 441.891 419.605   3
 -10   0   3 22903.2 2069.62   3
 -10   0   4 2024.17 658.018   3
 -10   0   5 21440.8 2051.67   3
 -10   0   6 18191.6 1899.91   3
 -10   0   7 3362.66 911.325   3
 -10   0   8 22465.8 2177.74   3
 -10   0   9 686.788 542.219   3
 -10   0  10 12577.1 1667.77   3
 -10   0  11-22.8859 378.752   3
 -10   0  12 5737.17 1121.37   3
 -10   1 -10 23212.9 2336.90   3
 -10   1  -9 11037.5 1599.16   3
 -10   1  -8 17812.5 2003.81   3
 -10   1  -7 1618.46 729.408   3
 -10   1  -6 15068.3 1743.61   3
 -10   1  -5 12322.5 1574.90   3
 -10   1  -4 8215.24 1286.59   3
 -10   1  -3 28306.3 2320.65   3
 -10   1  -2 908.885 425.990   3
 -10   1  -1 26227.3 2225.33   3
 -10   1   0 1810.09 598.885   3
 -10   1   1 26636.9 2228.03   3
 -10   1   2 10180.7 1374.67   3
 -10   1   3 11647.7 1462.02   3
 -10   1   4 23963.0 2146.47   3
 -10   1   5 4075.08 908.758   3
 -10   1   6 31017.4 2438.03   3
 -10   1   7 2073.43 762.714   3
 -10   1   8 9078.40 1369.09   3
 -10   1   9 12792.9 1612.19   3
 -10   1  10 2988.45 836.334   3
 -10   2 -10 18179.0 2075.76   3
 -10   2  -9 8471.25 1445.74   3
 -10   2  -8 11854.3 1652.50   3
 -10   2  -7 28988.2 2503.62   3
 -10   2  -6 802.072 498.440   3
 -10   2  -5 32636.7 2570.81   3
 -10   2  -4-258.932 532.200   3
 -10   2  -3 18493.1 1886.62   3
 -10   2  -2 6825.32 1116.78   3
 -10   2  -1 17055.6 1774.04   3
 -10   2   0 16283.2 1731.98   3
 -10   2   1 11749.6 1456.53   3
 -10   2   2 23949.8 2080.67   3
 -10   2   3 26.4125 275.206   3
 -10   2   4 18851.7 1866.30   3
 -10   2   5 7509.64 1191.85   3
 -10   2   6 16819.4 1765.05   3
 -10   2   7 9660.83 1344.82   3
 -10   2   8 1504.58 612.752   3
 -10   3 -10 13869.0 1857.84   3
 -10   3  -9 18084.1 2064.03   3
 -10   3  -8 2230.42 754.016   3
 -10   3  -7 15896.6 1866.65   3
 -10   3  -6 4396.57 1008.90   3
 -10   3  -5 13772.5 1701.93   3
 -10   3  -4 21088.7 2044.43   3
 -10   3  -3 19572.5 1948.41   3
 -10   3  -2 20997.4 1983.57   3
 -10   3  -1 562.819 399.321   3
 -10   3   0 24589.7 2116.40   3
 -10   3   1 3388.98 836.974   3
 -10   3   2 9178.66 1274.73   3
 -10   3   3 17295.9 1745.72   3
 -10   3   4 6091.43 1069.37   3
 -10   3   5 33070.0 2438.92   3
 -10   4  -9 10265.9 1561.48   3
 -10   4  -8 6850.73 1244.86   3
 -10   4  -7 10895.6 1574.61   3
 -10   4  -6 21645.9 2174.25   3
 -10   4  -5 883.161 557.786   3
 -10   4  -4 29886.7 2465.43   3
 -10   4  -3 1435.51 684.502   3
 -10   4  -2 25002.2 2169.93   3
 -10   4  -1 19268.4 1880.98   3
 -10   4   0 19591.1 1894.06   3
 -10   4   1 21911.2 1957.56   3
 -10   4   2 4148.83 819.685   3
 -10   5  -9 7564.26 1387.18   3
 -10   5  -8 14359.7 1874.92   3
 -10   5  -7 264.246 409.393   3
 -10   5  -6 18524.5 2001.60   3
 -10   5  -5 11595.7 1556.08   3
 -10   5  -4 21680.3 2110.49   3
 -10   5  -3 19455.9 1947.29   3
 -10   5  -2 16331.2 1753.44   3
 -10   6 -10 10238.7 1659.07   3
 -10   6  -9 54.5072 437.443   3
 -10   6  -8 16936.8 2030.38   3
 -10   6  -7 7933.21 1397.48   3
 -10   6  -6 12307.6 1684.16   3
  -9 -12   2 4013.60 994.053   3
  -9 -11  -3 1341.00 586.683   3
  -9 -11  -2 11145.1 1487.03   3
  -9 -11  -1 2258.83 696.843   3
  -9 -11   0 5322.47 1088.93   3
  -9 -11   1 16769.3 1925.79   3
  -9 -11   2-493.977 449.037   3
  -9 -11   3 20317.6 2226.00   3
  -9 -10  -7 252.951 334.307   3
  -9 -10  -6 17279.3 1785.77   3
  -9 -10  -5 788.000 449.922   3
  -9 -10  -4 14348.7 1648.06   3
  -9 -10  -3 8241.54 1263.48   3
  -9 -10  -2 3346.76 880.557   3
  -9 -10  -1 18746.7 1945.77   3
  -9 -10   0 2265.57 716.806   3
  -9 -10   1 18752.7 2014.39   3
  -9 -10   2 5836.80 1168.50   3
  -9 -10   3 12231.1 1687.83   3
  -9 -10   4 5180.77 1141.05   3
  -9 -10   5 869.304 533.955   3
  -9  -9 -10 20011.9 1915.94   3
  -9  -9  -9 1127.76 587.188   3
  -9  -9  -8 19210.9 1856.68   3
  -9  -9  -7 1597.68 577.881   3
  -9  -9  -6 9110.36 1276.65   3
  -9  -9  -5 13062.6 1548.72   3
  -9  -9  -4-254.781 326.489   3
  -9  -9  -3 20209.8 1951.65   3
  -9  -9  -2 4220.43 948.349   3
  -9  -9  -1 14181.5 1712.59   3
  -9  -9   0 2657.56 804.444   3
  -9  -9   1 8498.96 1334.54   3
  -9  -9   2 22451.3 2206.57   3
  -9  -9   3 2426.39 796.114   3
  -9  -9   4 28067.9 2532.80   3
  -9  -9   5-582.988 466.898   3
  -9  -9   6 7354.94 1387.97   3
  -9  -8 -13 301.028 407.511   3
  -9  -8 -12 20864.5 2008.29   3
  -9  -8 -11 1209.71 531.076   3
  -9  -8 -10 5980.53 1108.07   3
  -9  -8  -9 19140.5 1875.70   3
  -9  -8  -8 2458.15 721.001   3
  -9  -8  -7 14206.3 1596.98   3
  -9  -8  -6-21.6007 305.757   3
  -9  -8  -5 21198.6 1975.06   3
  -9  -8  -4 2161.96 655.237   3
  -9  -8  -3 9838.37 1350.76   3
  -9  -8  -2 19191.2 1888.53   3
  -9  -8  -1 3506.75 841.333   3
  -9  -8   0 23044.4 2122.45   3
  -9  -8   1 1516.67 676.351   3
  -9  -8   2 22974.4 2192.13   3
  -9  -8   3 1387.24 641.116   3
  -9  -8   4 13932.6 1731.81   3
  -9  -8   5 12169.1 1651.99   3
  -9  -8   6 558.401 443.938   3
  -9  -8   7 17019.2 2040.23   3
  -9  -8   8 169.097 374.874   3
  -9  -7 -16 17353.6 1994.04   3
  -9  -7 -15-1270.34 603.438   3
  -9  -7 -14 11516.4 1563.15   3
  -9  -7 -13 5690.15 1096.46   3
  -9  -7 -12 11867.3 1541.83   3
  -9  -7 -11 17682.0 1848.95   3
  -9  -7 -10 39.6439 319.000   3
  -9  -7  -9 33397.1 2497.79   3
  -9  -7  -8 3961.86 865.427   3
  -9  -7  -7 21731.6 1990.56   3
  -9  -7  -6 5820.69 1045.64   3
  -9  -7  -5 20503.0 1915.59   3
  -9  -7  -4 14195.8 1594.27   3
  -9  -7  -3 130.534 323.750   3
  -9  -7  -2 26879.9 2225.84   3
  -9  -7  -1 5317.98 1036.74   3
  -9  -7   0 14847.2 1672.06   3
  -9  -7   1 19819.5 1962.09   3
  -9  -7   2 6332.24 1124.29   3
  -9  -7   3 9878.86 1428.02   3
  -9  -7   4 1794.88 697.853   3
  -9  -7   5 15797.8 1884.72   3
  -9  -7   6 657.060 507.440   3
  -9  -7   7 8927.10 1497.37   3
  -9  -7   8 19603.5 2192.01   3
  -9  -7   9 6703.55 1346.06   3
  -9  -6 -19 1912.44 749.515   3
  -9  -6 -18 13545.2 1824.84   3
  -9  -6 -17 4915.91 1145.46   3
  -9  -6 -16 11612.5 1653.56   3
  -9  -6 -15 15981.2 1881.07   3
  -9  -6 -14 8609.66 1379.08   3
  -9  -6 -13 15497.0 1759.76   3
  -9  -6 -12-21.1474 428.812   3
  -9  -6 -11 22995.4 2127.41   3
  -9  -6 -10 5099.39 1011.58   3
  -9  -6  -9 27458.0 2258.23   3
  -9  -6  -8 28271.9 2290.73   3
  -9  -6  -7 11583.3 1488.19   3
  -9  -6  -6 32223.1 2414.73   3
  -9  -6  -5 258.798 461.565   3
  -9  -6  -4 21458.0 1953.16   3
  -9  -6  -3 10177.6 1341.10   3
  -9  -6  -2 11675.7 1436.59   3
  -9  -6  -1 23140.4 2040.36   3
  -9  -6   0 444.664 389.051   3
  -9  -6   1 17827.4 1826.09   3
  -9  -6   2 783.379 453.303   3
  -9  -6   3 8990.60 1345.99   3
  -9  -6   4 4126.80 941.989   3
  -9  -6   5 16603.0 1866.30   3
  -9  -6   6 34518.8 2742.76   3
  -9  -6   7 3636.98 965.953   3
  -9  -6   8 24235.9 2386.74   3
  -9  -6   9 6049.16 1226.17   3
  -9  -6  10 6439.68 1304.17   3
  -9  -5 -18 9406.07 1551.00   3
  -9  -5 -17 20318.9 2201.12   3
  -9  -5 -16 306.789 519.455   3
  -9  -5 -15 16110.9 1889.70   3
  -9  -5 -14 4435.16 1030.88   3
  -9  -5 -13 17577.0 1935.28   3
  -9  -5 -12 10444.8 1457.95   3
  -9  -5 -11 21400.1 2078.56   3
  -9  -5 -10 36457.4 2641.72   3
  -9  -5  -9 3583.52 898.172   3
  -9  -5  -8 31734.3 2419.95   3
  -9  -5  -7 6831.22 1123.23   3
  -9  -5  -6 19741.3 1867.59   3
  -9  -5  -5 29827.4 2296.15   3
  -9  -5  -4 7927.02 1202.49   3
  -9  -5  -3 19786.7 1864.46   3
  -9  -5  -2-450.386 488.457   3
  -9  -5  -1 18853.7 1832.44   3
  -9  -5   0 13867.8 1582.21   3
  -9  -5   1 20711.7 1944.62   3
  -9  -5   2 35713.2 2602.08   3
  -9  -5   3 8752.89 1314.04   3
  -9  -5   4 37435.8 2720.50   3
  -9  -5   5 1145.97 545.333   3
  -9  -5   6 16269.3 1825.06   3
  -9  -5   7 8153.26 1339.28   3
  -9  -5   8 3302.65 924.388   3
  -9  -5   9 8678.08 1411.77   3
  -9  -5  10-365.745 353.520   3
  -9  -5  11 11069.8 1731.83   3
  -9  -4 -15 11705.8 1650.04   3
  -9  -4 -14 25132.4 2341.85   3
  -9  -4 -13 7654.08 1281.87   3
  -9  -4 -12 19971.5 2034.93   3
  -9  -4 -11 1102.56 549.060   3
  -9  -4 -10 23816.2 2140.61   3
  -9  -4  -9 36963.2 2664.44   3
  -9  -4  -8 28543.3 2295.99   3
  -9  -4  -7 32809.5 2450.99   3
  -9  -4  -6 3238.46 775.136   3
  -9  -4  -5 32675.4 2389.15   3
  -9  -4  -4 8510.69 1262.29   3
  -9  -4  -3 36732.3 2533.93   3
  -9  -4  -2 12487.8 1456.62   3
  -9  -4  -1 21116.7 1909.77   3
  -9  -4   0 60933.9 3320.40   3
  -9  -4   1 1193.85 495.262   3
  -9  -4   2 19898.3 1890.52   3
  -9  -4   3 12029.0 1496.01   3
  -9  -4   4 5212.32 1034.10   3
  -9  -4   5 11643.4 1516.32   3
  -9  -4   6-343.634 311.254   3
  -9  -4   7 18433.8 1961.32   3
  -9  -4   8 1669.97 747.012   3
  -9  -4   9 9621.58 1473.02   3
  -9  -4  10 3446.36 966.430   3
  -9  -4  11 7808.01 1372.06   3
  -9  -3 -13 58674.8 3581.01   3
  -9  -3 -12 29523.1 2464.04   3
  -9  -3 -11 56108.2 3392.96   3
  -9  -3 -10 14176.3 1664.83   3
  -9  -3  -9 65450.5 3587.01   3
  -9  -3  -8 6467.95 1120.42   3
  -9  -3  -7 28125.6 2282.38   3
  -9  -3  -6 1158.31 515.868   3
  -9  -3  -5 11832.9 1453.74   3
  -9  -3  -4 34149.0 2451.12   3
  -9  -3  -3 2690.51 722.355   3
  -9  -3  -2 29546.1 2245.01   3
  -9  -3  -1 4269.34 900.941   3
  -9  -3   0 28714.2 2233.59   3
  -9  -3   1 12106.4 1460.04   3
  -9  -3   2 4573.70 883.025   3
  -9  -3   3 13934.6 1582.21   3
  -9  -3   4 407.328 373.362   3
  -9  -3   5 24579.7 2149.78   3
  -9  -3   6 3354.49 852.575   3
  -9  -3   7 22036.8 2096.62   3
  -9  -3   8 13055.8 1663.86   3
  -9  -3   9 10305.1 1500.79   3
  -9  -3  10 10466.8 1554.79   3
  -9  -3  11-855.722 549.179   3
  -9  -3  12 18148.1 2091.99   3
  -9  -2 -11 31086.1 2515.89   3
  -9  -2 -10 3987.62 950.091   3
  -9  -2  -9 14232.5 1645.98   3
  -9  -2  -8 12665.7 1559.34   3
  -9  -2  -7 9602.38 1355.89   3
  -9  -2  -6 14545.9 1620.55   3
  -9  -2  -5 3220.98 760.886   3
  -9  -2  -4 44022.3 2777.50   3
  -9  -2  -3 14751.1 1583.32   3
  -9  -2  -2 20913.1 1883.75   3
  -9  -2  -1 12253.2 1473.82   3
  -9  -2   0 4813.97 907.543   3
  -9  -2   1 31681.1 2316.44   3
  -9  -2   2 240.236 309.443   3
  -9  -2   3 39441.0 2640.36   3
  -9  -2   4 16433.1 1708.82   3
  -9  -2   5 8480.75 1276.99   3
  -9  -2   6 25646.0 2174.43   3
  -9  -2   7 316.439 394.505   3
  -9  -2   8 22946.0 2155.53   3
  -9  -2   9 398.688 487.226   3
  -9  -2  10 18333.1 1975.89   3
  -9  -2  11 5198.68 1081.24   3
  -9  -2  12 6791.90 1304.07   3
  -9  -1 -10 27840.8 2375.22   3
  -9  -1  -9 581.156 446.853   3
  -9  -1  -8 46542.6 2997.16   3
  -9  -1  -7 1383.16 603.634   3
  -9  -1  -6 35331.4 2534.83   3
  -9  -1  -5 11364.3 1413.61   3
  -9  -1  -4 6778.94 1123.93   3
  -9  -1  -3 24881.8 2057.90   3
  -9  -1  -2 102.571 307.981   3
  -9  -1  -1 74159.4 3622.95   3
  -9  -1   0 4433.06 895.190   3
  -9  -1   1 32661.5 2342.94   3
  -9  -1   2 7846.17 1153.52   3
  -9  -1   3 7688.74 1146.60   3
  -9  -1   4 19568.7 1845.74   3
  -9  -1   5 1310.64 537.742   3
  -9  -1   6 28851.6 2295.31   3
  -9  -1   7 5882.41 1080.19   3
  -9  -1   8 11178.7 1452.47   3
  -9  -1   9 19452.2 1978.51   3
  -9  -1  10 3296.41 833.280   3
  -9  -1  11 22350.9 2209.37   3
  -9  -1  12 2301.86 705.802   3
  -9   0  -9 13543.7 1643.84   3
  -9   0  -8 17472.1 1831.07   3
  -9   0  -7 26548.9 2231.96   3
  -9   0  -6 1105.06 514.266   3
  -9   0  -5 64321.8 3441.29   3
  -9   0  -4 4163.15 892.312   3
  -9   0  -3 61071.3 3272.54   3
  -9   0  -2 3532.33 819.006   3
  -9   0  -1 22611.4 1940.25   3
  -9   0   0 13902.5 1509.78   3
  -9   0   1 462.636 394.241   3
  -9   0   2 16362.1 1623.82   3
  -9   0   3 2225.33 681.499   3
  -9   0   4 22856.6 1967.95   3
  -9   0   5 18368.5 1779.32   3
  -9   0   6 7899.16 1192.62   3
  -9   0   7 39954.9 2716.02   3
  -9   0   8 1609.87 601.395   3
  -9   0   9 31011.1 2458.33   3
  -9   0  10 9613.55 1400.59   3
  -9   0  11 14512.2 1739.01   3
  -9   0  12 18613.4 2006.32   3
  -9   1  -8 2051.64 769.878   3
  -9   1  -7 62897.6 3505.07   3
  -9   1  -6 7680.62 1186.96   3
  -9   1  -5 49044.6 2986.82   3
  -9   1  -4 21783.3 1954.96   3
  -9   1  -3 1499.35 508.885   3
  -9   1  -2 11930.1 1402.86   3
  -9   1  -1 3065.41 768.938   3
  -9   1   0 26390.6 2083.09   3
  -9   1   1 7173.59 1087.34   3
  -9   1   2 15980.3 1601.57   3
  -9   1   3 32955.0 2328.59   3
  -9   1   4-83.5765 275.505   3
  -9   1   5 54785.8 3088.90   3
  -9   1   6 1585.97 553.183   3
  -9   1   7 22982.3 1983.01   3
  -9   1   8 12460.8 1492.17   3
  -9   1   9 4532.76 927.630   3
  -9   1  10 21215.5 2011.92   3
  -9   1  11 298.547 327.352   3
  -9   1  12 11627.5 1567.00   3
  -9   2  -8 14571.2 1711.22   3
  -9   2  -7 4507.47 983.526   3
  -9   2  -6 32717.0 2475.96   3
  -9   2  -5 754.371 442.724   3
  -9   2  -4 49194.4 2979.62   3
  -9   2  -3 11426.0 1405.49   3
  -9   2  -2 29067.8 2211.94   3
  -9   2  -1 14348.9 1525.86   3
  -9   2   0 824.912 460.784   3
  -9   2   1 25783.9 2034.03   3
  -9   2   2-31.4810 262.124   3
  -9   2   3 20169.5 1780.00   3
  -9   2   4 21797.7 1866.37   3
  -9   2   5 21276.8 1853.39   3
  -9   2   6 15919.0 1633.38   3
  -9   2   7 2995.04 745.446   3
  -9   2   8 19360.4 1809.32   3
  -9   2   9 1504.97 541.218   3
  -9   3  -7 7541.35 1243.29   3
  -9   3  -6 16200.8 1749.49   3
  -9   3  -5 18236.3 1834.26   3
  -9   3  -4 19667.2 1862.30   3
  -9   3  -3 27445.7 2180.01   3
  -9   3  -2 5566.00 976.564   3
  -9   3  -1 32604.9 2330.98   3
  -9   3   0 15162.2 1569.49   3
  -9   3   1 9029.73 1205.40   3
  -9   3   2 9824.73 1240.05   3
  -9   3   3 867.578 408.599   3
  -9   3   4 30279.0 2175.50   3
  -9   3   5 413.966 373.777   3
  -9   3   6 39609.6 2519.24   3
  -9   4  -7 12890.9 1661.41   3
  -9   4  -6 1375.38 595.932   3
  -9   4  -5 27568.7 2278.74   3
  -9   4  -4 2610.52 716.381   3
  -9   4  -3 28294.3 2232.28   3
  -9   4  -2 6111.29 1026.04   3
  -9   4  -1 20047.2 1815.51   3
  -9   4   0 34286.3 2352.19   3
  -9   4   1 313.222 269.726   3
  -9   4   2 26677.6 2013.20   3
  -9   4   3 4677.77 844.444   3
  -9   5  -7 29482.3 2468.45   3
  -9   5  -6 5516.30 1082.80   3
  -9   5  -5 19555.1 1929.84   3
  -9   5  -4 18041.8 1814.99   3
  -9   5  -3 3261.39 786.166   3
  -9   5  -2 14283.1 1546.84   3
  -9   5  -1 147.104 284.103   3
  -9   5   0 31065.8 2208.22   3
  -9   6  -7 7439.33 1285.56   3
  -9   6  -6 14845.1 1740.67   3
  -9   6  -5 781.073 471.952   3
  -9   6  -4 16612.6 1740.10   3
  -9   7  -8 12699.6 1717.90   3
  -8 -11  -2-123.103 314.094   3
  -8 -11  -1 16627.9 1781.16   3
  -8 -11   0 6304.42 1118.94   3
  -8 -11   1 1078.84 507.793   3
  -8 -11   2 18880.7 1982.84   3
  -8 -11   3-107.089 326.943   3
  -8 -11   4 13071.2 1727.81   3
  -8 -10  -6 24.5032 329.416   3
  -8 -10  -5 18503.9 1737.96   3
  -8 -10  -4 7529.50 1130.29   3
  -8 -10  -3 2667.80 710.981   3
  -8 -10  -2 15377.4 1630.69   3
  -8 -10  -1 2892.28 756.211   3
  -8 -10   0 25349.4 2177.61   3
  -8 -10   1-69.2050 301.950   3
  -8 -10   2 15762.1 1762.37   3
  -8 -10   3 10291.0 1462.81   3
  -8 -10   4 4005.72 1009.82   3
  -8 -10   5 12457.1 1682.20   3
  -8 -10   6 2124.02 781.652   3
  -8  -9  -9 23380.1 1924.32   3
  -8  -9  -8 3954.66 808.956   3
  -8  -9  -7 23260.9 1926.09   3
  -8  -9  -6 12272.0 1396.46   3
  -8  -9  -5 2960.51 711.164   3
  -8  -9  -4 24635.5 2006.03   3
  -8  -9  -3 556.911 429.325   3
  -8  -9  -2 20647.8 1888.82   3
  -8  -9  -1 8648.08 1231.27   3
  -8  -9   0 9198.20 1281.80   3
  -8  -9   1 13148.5 1567.76   3
  -8  -9   2 619.082 480.462   3
  -8  -9   3 19187.7 1953.67   3
  -8  -9   4-1237.95 582.543   3
  -8  -9   5 12476.7 1635.66   3
  -8  -9   6 9976.29 1513.78   3
  -8  -9   7 4335.02 1053.71   3
  -8  -8 -13 21119.9 1920.71   3
  -8  -8 -12 1278.92 509.887   3
  -8  -8 -11 20988.6 1882.14   3
  -8  -8 -10 16393.2 1633.31   3
  -8  -8  -9 3791.71 835.404   3
  -8  -8  -8 30860.3 2245.30   3
  -8  -8  -7 402.215 372.654   3
  -8  -8  -6 41009.7 2574.31   3
  -8  -8  -5 3091.99 757.056   3
  -8  -8  -4 14357.8 1522.62   3
  -8  -8  -3 25258.2 2045.31   3
  -8  -8  -2 445.877 382.187   3
  -8  -8  -1 31214.1 2309.16   3
  -8  -8   0 701.208 432.709   3
  -8  -8   1 25955.5 2147.35   3
  -8  -8   2 722.626 477.085   3
  -8  -8   3 17176.6 1822.45   3
  -8  -8   4 8345.42 1276.49   3
  -8  -8   5 3279.30 885.674   3
  -8  -8   6 15218.0 1799.83   3
  -8  -8   7 427.343 406.774   3
  -8  -8   8 10497.9 1599.59   3
  -8  -7 -16 113.005 395.301   3
  -8  -7 -15 7637.22 1234.37   3
  -8  -7 -14 5822.08 1080.83   3
  -8  -7 -13 8003.26 1207.09   3
  -8  -7 -12 16453.8 1695.72   3
  -8  -7 -11-727.009 443.860   3
  -8  -7 -10 47595.7 2849.99   3
  -8  -7  -9 5959.90 1028.61   3
  -8  -7  -8 36618.8 2454.16   3
  -8  -7  -7 17057.8 1648.00   3
  -8  -7  -6 20996.6 1816.45   3
  -8  -7  -5 22717.0 1888.32   3
  -8  -7  -4-152.744 360.738   3
  -8  -7  -3 38129.1 2490.13   3
  -8  -7  -2 3671.20 790.297   3
  -8  -7  -1 26662.8 2082.95   3
  -8  -7   0 18218.6 1749.41   3
  -8  -7   1 10695.7 1362.50   3
  -8  -7   2 16462.4 1708.45   3
  -8  -7   3 1223.27 575.093   3
  -8  -7   4 14928.7 1685.84   3
  -8  -7   5 2413.55 720.858   3
  -8  -7   6 13688.5 1663.29   3
  -8  -7   7 6320.53 1194.20   3
  -8  -7   8 7259.98 1304.29   3
  -8  -7   9 11623.4 1658.39   3
  -8  -6 -18 5799.10 1165.35   3
  -8  -6 -17 3562.49 916.040   3
  -8  -6 -16 17951.1 1914.01   3
  -8  -6 -15-116.824 448.756   3
  -8  -6 -14 27181.0 2288.34   3
  -8  -6 -13 536.242 448.376   3
  -8  -6 -12 27948.9 2252.16   3
  -8  -6 -11 5908.24 1036.02   3
  -8  -6 -10 18643.1 1777.03   3
  -8  -6  -9 21725.1 1889.25   3
  -8  -6  -8 4807.04 894.521   3
  -8  -6  -7 29241.5 2146.56   3
  -8  -6  -6 3106.15 692.411   3
  -8  -6  -5 51963.9 2886.74   3
  -8  -6  -4 11758.1 1369.06   3
  -8  -6  -3 44864.3 2675.53   3
  -8  -6  -2 38521.8 2485.54   3
  -8  -6  -1 2448.11 656.242   3
  -8  -6   0 33620.8 2344.34   3
  -8  -6   1 3365.94 766.998   3
  -8  -6   2 18386.0 1764.58   3
  -8  -6   3 2502.61 679.893   3
  -8  -6   4 11898.0 1476.35   3
  -8  -6   5 15402.6 1708.93   3
  -8  -6   6 3126.64 828.450   3
  -8  -6   7 19876.9 2000.71   3
  -8  -6   8 2858.42 839.288   3
  -8  -6   9 18241.9 2028.19   3
  -8  -6  10 15819.2 1917.88   3
  -8  -5 -15 6347.56 1183.69   3
  -8  -5 -14 14795.1 1719.36   3
  -8  -5 -13 6735.91 1136.12   3
  -8  -5 -12 11879.7 1462.36   3
  -8  -5 -11 15447.2 1656.81   3
  -8  -5 -10 240.598 447.908   3
  -8  -5  -9 41570.8 2647.80   3
  -8  -5  -8 8296.44 1165.14   3
  -8  -5  -7 49954.7 2862.40   3
  -8  -5  -6 20207.6 1766.07   3
  -8  -5  -5 2888.36 690.986   3
  -8  -5  -4 41415.2 2546.09   3
  -8  -5  -3 8.04674 379.332   3
  -8  -5  -2 42321.4 2575.78   3
  -8  -5  -1 19404.6 1739.36   3
  -8  -5   0 33344.0 2342.90   3
  -8  -5   1 28950.6 2165.48   3
  -8  -5   2 21303.3 1877.33   3
  -8  -5   3 28955.7 2229.94   3
  -8  -5   4-319.689 396.984   3
  -8  -5   5 35278.7 2540.00   3
  -8  -5   6 12537.8 1529.52   3
  -8  -5   7 14263.4 1685.07   3
  -8  -5   8 17088.7 1861.13   3
  -8  -5   9 5171.66 1058.78   3
  -8  -5  10 6739.93 1281.82   3
  -8  -5  11 2759.46 848.052   3
  -8  -4 -12 4046.94 869.384   3
  -8  -4 -11 36084.2 2572.11   3
  -8  -4 -10 13599.9 1538.15   3
  -8  -4  -9 5877.85 1026.02   3
  -8  -4  -8 24654.3 2025.21   3
  -8  -4  -7 250.328 362.975   3
  -8  -4  -6 16171.9 1600.35   3
  -8  -4  -5 72143.9 3427.49   3
  -8  -4  -4 53485.6 2919.64   3
  -8  -4  -3 38118.8 2426.25   3
  -8  -4  -2 82744.4 3669.78   3
  -8  -4  -1 62015.5 3147.58   3
  -8  -4   0 29557.2 2151.93   3
  -8  -4   1 83006.4 3726.35   3
  -8  -4   2 3246.95 723.070   3
  -8  -4   3 14250.7 1526.71   3
  -8  -4   4 28347.5 2194.71   3
  -8  -4   5 595.734 418.606   3
  -8  -4   6 22403.1 2015.17   3
  -8  -4   7 179.007 435.792   3
  -8  -4   8 18986.9 1927.93   3
  -8  -4   9 3906.40 930.221   3
  -8  -4  10 6426.03 1196.24   3
  -8  -4  11 7566.64 1318.22   3
  -8  -3 -10 33821.0 2413.05   3
  -8  -3  -9 39834.5 2608.23   3
  -8  -3  -8 58692.2 3174.42   3
  -8  -3  -7 32142.8 2280.30   3
  -8  -3  -6 57088.4 3039.70   3
  -8  -3  -5 39543.5 2479.94   3
  -8  -3  -4 27071.4 2048.40   3
  -8  -3  -3 98504.6 4048.45   3
  -8  -3  -2 1564.99 566.035   3
  -8  -3  -1 46248.8 2682.97   3
  -8  -3   0 21302.7 1788.27   3
  -8  -3   1 9265.76 1193.11   3
  -8  -3   2 33661.9 2308.55   3
  -8  -3   3 1528.18 549.154   3
  -8  -3   4 26759.2 2107.07   3
  -8  -3   5 6976.99 1098.92   3
  -8  -3   6 18639.2 1795.95   3
  -8  -3   7 12137.8 1487.01   3
  -8  -3   8 12314.3 1525.50   3
  -8  -3   9 23289.9 2139.10   3
  -8  -3  10 774.534 433.299   3
  -8  -3  11 16980.5 1921.06   3
  -8  -3  12 2459.93 779.451   3
  -8  -2  -9 38739.9 2587.96   3
  -8  -2  -8 41214.4 2630.93   3
  -8  -2  -7 52343.5 2954.98   3
  -8  -2  -6 139.176 392.331   3
  -8  -2  -5 36077.9 2372.27   3
  -8  -2  -4 20686.9 1764.96   3
  -8  -2  -3 17968.4 1649.51   3
  -8  -2  -2 59530.0 3029.48   3
  -8  -2  -1 638.223 471.358   3
  -8  -2   0 37926.1 2404.78   3
  -8  -2   1 206.671 398.407   3
  -8  -2   2 40915.5 2506.99   3
  -8  -2   3 3613.70 784.189   3
  -8  -2   4 15987.1 1586.48   3
  -8  -2   5 31390.1 2269.33   3
  -8  -2   6 1323.34 499.301   3
  -8  -2   7 53816.9 3097.21   3
  -8  -2   8 145.341 400.184   3
  -8  -2   9 34105.7 2529.66   3
  -8  -2  10 7542.77 1228.00   3
  -8  -2  11 7686.11 1280.31   3
  -8  -2  12 4979.59 1076.81   3
  -8  -1  -8 5599.28 1037.28   3
  -8  -1  -7 47653.2 2821.58   3
  -8  -1  -6 64732.2 3275.60   3
  -8  -1  -5-238.376 378.165   3
  -8  -1  -4 25338.7 1955.30   3
  -8  -1  -3 421.002 320.468   3
  -8  -1  -2 49017.1 2712.74   3
  -8  -1  -1 630.850 392.486   3
  -8  -1   0 30795.0 2125.86   3
  -8  -1   1 21835.3 1784.35   3
  -8  -1   2 6312.03 1008.06   3
  -8  -1   3 66757.9 3231.88   3
  -8  -1   4 281.480 364.445   3
  -8  -1   5 70017.9 3396.02   3
  -8  -1   6 51.7926 316.008   3
  -8  -1   7 22668.4 1948.73   3
  -8  -1   8 5913.13 1029.95   3
  -8  -1   9 3500.62 814.596   3
  -8  -1  10 24948.9 2166.20   3
  -8  -1  11 2046.83 673.487   3
  -8  -1  12 14821.8 1752.53   3
  -8   0  -7 143.774 386.934   3
  -8   0  -6 68748.1 3407.65   3
  -8   0  -5 6772.33 1032.85   3
  -8   0  -4 64615.2 3209.61   3
  -8   0  -3 12653.4 1372.71   3
  -8   0  -2 4288.50 810.748   3
  -8   0  -1 37513.7 2344.33   3
  -8   0   0 278.716 238.428   3
  -8   0   1 80539.9 3505.00   3
  -8   0   2 310.400 376.536   3
  -8   0   3 40123.0 2444.92   3
  -8   0   4 9635.54 1186.78   3
  -8   0   5 13437.9 1411.99   3
  -8   0   6 24715.6 1954.67   3
  -8   0   7 1421.52 552.268   3
  -8   0   8 19421.7 1787.11   3
  -8   0   9 5758.76 1018.16   3
  -8   0  10 21449.2 1967.60   3
  -8   0  11 19280.9 1902.31   3
  -8   0  12 2478.77 756.123   3
  -8   1  -6 32461.6 2309.77   3
  -8   1  -5 44702.3 2688.28   3
  -8   1  -4 4951.48 897.797   3
  -8   1  -3 108796. 4241.50   3
  -8   1  -2 2321.71 653.041   3
  -8   1  -1 24531.7 1863.72   3
  -8   1   0 2214.59 579.599   3
  -8   1   1 18155.7 1602.81   3
  -8   1   2 19996.0 1674.39   3
  -8   1   3 3239.86 681.297   3
  -8   1   4 62034.0 3060.54   3
  -8   1   5 1169.23 425.005   3
  -8   1   6 58464.0 3022.00   3
  -8   1   7 4752.60 863.899   3
  -8   1   8 2860.67 694.113   3
  -8   1   9 28727.1 2180.62   3
  -8   1  10-32.8105 257.107   3
  -8   1  11 17176.0 1754.68   3
  -8   1  12 1454.38 593.751   3
  -8   2  -6 1733.28 597.529   3
  -8   2  -5 41549.8 2591.78   3
  -8   2  -4 2029.24 584.722   3
  -8   2  -3 73928.5 3450.37   3
  -8   2  -2 22287.9 1812.78   3
  -8   2  -1 1832.27 571.065   3
  -8   2   0 54487.6 2822.11   3
  -8   2   1-42.8938 262.467   3
  -8   2   2 43242.8 2479.32   3
  -8   2   3 7074.43 999.563   3
  -8   2   4 15612.4 1479.92   3
  -8   2   5 40678.4 2430.35   3
  -8   2   6 7292.79 1024.74   3
  -8   2   7 25578.9 1941.53   3
  -8   2   8 649.218 389.074   3
  -8   2   9 9498.80 1239.15   3
  -8   2  10 7838.11 1124.45   3
  -8   2  11 6409.43 1044.78   3
  -8   3  -5 9547.64 1250.55   3
  -8   3  -4 29176.4 2152.30   3
  -8   3  -3 8243.86 1137.93   3
  -8   3  -2 63394.5 3136.27   3
  -8   3  -1 4016.53 774.584   3
  -8   3   0 24591.4 1875.35   3
  -8   3   1 38756.2 2332.91   3
  -8   3   2 411.201 251.332   3
  -8   3   3 35260.1 2190.58   3
  -8   3   4 518.828 355.597   3
  -8   3   5 24153.6 1829.71   3
  -8   3   6 3950.47 754.693   3
  -8   3   7 14080.4 1401.28   3
  -8   3   8 10677.6 1226.53   3
  -8   4  -5 1558.02 610.949   3
  -8   4  -4 23443.6 1933.47   3
  -8   4  -3 15480.4 1543.26   3
  -8   4  -2 10595.2 1248.90   3
  -8   4  -1 38462.1 2364.12   3
  -8   4   0 2442.68 606.338   3
  -8   4   1 53865.4 2760.26   3
  -8   4   2 2776.25 632.865   3
  -8   4   3 16669.1 1459.90   3
  -8   4   4 11800.5 1231.18   3
  -8   4   5 6101.77 917.994   3
  -8   5  -5 18359.8 1764.58   3
  -8   5  -4 6645.25 1050.42   3
  -8   5  -3 26203.5 2018.41   3
  -8   5  -2 469.050 296.968   3
  -8   5  -1 22168.3 1766.22   3
  -8   5   0 1842.30 594.394   3
  -8   5   1 12824.7 1301.61   3
  -8   5   2 23753.6 1740.23   3
  -8   6  -5 20735.7 1902.91   3
  -8   6  -4 1172.61 554.437   3
  -8   6  -3 9405.49 1218.29   3
  -8   6  -2 11175.6 1289.29   3
  -8   7  -6 13839.7 1608.19   3
  -7 -11  -1 7618.31 1109.14   3
  -7 -11   0 12227.4 1459.06   3
  -7 -11   1 9385.90 1288.71   3
  -7 -11   2 103.842 308.554   3
  -7 -11   3 22155.6 2096.71   3
  -7 -10  -5 6200.18 927.463   3
  -7 -10  -4 4185.14 784.749   3
  -7 -10  -3 16065.8 1556.42   3
  -7 -10  -2 654.426 356.824   3
  -7 -10  -1 34016.7 2333.89   3
  -7 -10   0 778.057 510.265   3
  -7 -10   1 23878.9 2033.90   3
  -7 -10   2 6276.01 1062.72   3
  -7 -10   3 6922.36 1173.65   3
  -7 -10   4 18615.7 1910.31   3
  -7 -10   5 530.698 510.115   3
  -7  -9  -8 28464.8 1974.00   3
  -7  -9  -7 14924.3 1428.63   3
  -7  -9  -6 5495.87 894.611   3
  -7  -9  -5 30496.3 2069.28   3
  -7  -9  -4 114.244 266.128   3
  -7  -9  -3 19903.5 1705.41   3
  -7  -9  -2 12396.5 1366.04   3
  -7  -9  -1 13032.8 1398.80   3
  -7  -9   0 25323.3 2004.67   3
  -7  -9   1 1095.73 494.929   3
  -7  -9   2 26856.5 2164.31   3
  -7  -9   3 547.300 371.441   3
  -7  -9   4 11893.7 1501.46   3
  -7  -9   5 7430.11 1206.98   3
  -7  -9   6 6747.52 1215.75   3
  -7  -9   7 18858.9 2001.82   3
  -7  -8 -12 23584.7 1880.81   3
  -7  -8 -11 7247.38 1024.71   3
  -7  -8 -10 7818.48 1054.76   3
  -7  -8  -9 19074.1 1625.94   3
  -7  -8  -8 231.219 272.610   3
  -7  -8  -7 30515.9 2051.86   3
  -7  -8  -6 629.677 317.090   3
  -7  -8  -5 23282.1 1787.89   3
  -7  -8  -4 27167.2 1942.84   3
  -7  -8  -3-107.107 274.912   3
  -7  -8  -2 61129.1 3046.57   3
  -7  -8  -1 1874.81 573.295   3
  -7  -8   0 33292.2 2260.34   3
  -7  -8   1 4377.47 877.810   3
  -7  -8   2 20516.0 1823.34   3
  -7  -8   3 14109.5 1542.87   3
  -7  -8   4 1419.20 577.581   3
  -7  -8   5 24513.1 2130.23   3
  -7  -8   6-137.203 381.811   3
  -7  -8   7 21088.5 2080.58   3
  -7  -8   8 4969.53 1101.50   3
  -7  -7 -15 1766.47 592.148   3
  -7  -7 -14 16534.6 1649.51   3
  -7  -7 -13 7088.40 1093.80   3
  -7  -7 -12 1822.96 587.959   3
  -7  -7 -11 15359.9 1517.02   3
  -7  -7 -10 1019.29 415.979   3
  -7  -7  -9 27894.7 2004.04   3
  -7  -7  -8 17252.8 1549.14   3
  -7  -7  -7 6917.60 985.676   3
  -7  -7  -6 40668.7 2380.29   3
  -7  -7  -5-53.6061 258.535   3
  -7  -7  -4 83314.9 3511.54   3
  -7  -7  -3 1621.02 536.077   3
  -7  -7  -2 25399.1 1903.37   3
  -7  -7  -1 18079.3 1612.89   3
  -7  -7   0 877.938 420.408   3
  -7  -7   1 27689.3 2044.88   3
  -7  -7   2 452.830 407.521   3
  -7  -7   3 35168.0 2400.82   3
  -7  -7   4 4609.47 907.680   3
  -7  -7   5 15592.2 1645.67   3
  -7  -7   6 12343.7 1510.88   3
  -7  -7   7 10564.3 1429.64   3
  -7  -7   8 20332.5 2045.11   3
  -7  -7   9 154.139 413.974   3
  -7  -6 -15 17147.1 1747.61   3
  -7  -6 -14 195.051 288.758   3
  -7  -6 -13 34451.6 2395.26   3
  -7  -6 -12 9154.02 1205.53   3
  -7  -6 -11 10020.3 1252.97   3
  -7  -6 -10 23813.0 1892.79   3
  -7  -6  -9 3014.50 718.249   3
  -7  -6  -8 66413.6 3148.77   3
  -7  -6  -7 289.394 298.350   3
  -7  -6  -6 21307.7 1704.38   3
  -7  -6  -5 3502.07 716.964   3
  -7  -6  -4 13298.0 1349.62   3
  -7  -6  -3 27810.6 1968.30   3
  -7  -6  -2 2937.37 635.936   3
  -7  -6  -1 46212.8 2566.56   3
  -7  -6   0 7178.92 1030.65   3
  -7  -6   1 28381.5 2044.70   3
  -7  -6   2 5605.13 945.403   3
  -7  -6   3 5625.33 943.884   3
  -7  -6   4 34062.9 2356.95   3
  -7  -6   5 282.562 390.260   3
  -7  -6   6 40184.8 2672.55   3
  -7  -6   7 7161.41 1133.68   3
  -7  -6   8 34813.3 2609.02   3
  -7  -6   9 9271.93 1389.84   3
  -7  -6  10 8215.47 1320.78   3
  -7  -5 -12 60267.3 3184.60   3
  -7  -5 -11-176.868 272.452   3
  -7  -5 -10 36144.2 2349.04   3
  -7  -5  -9 1340.70 469.968   3
  -7  -5  -8 33686.5 2193.30   3
  -7  -5  -7 4326.32 780.955   3
  -7  -5  -6 3940.08 727.880   3
  -7  -5  -5 26991.1 1900.40   3
  -7  -5  -4 2089.83 561.803   3
  -7  -5  -3 64139.9 3009.68   3
  -7  -5  -2 335.626 319.104   3
  -7  -5  -1 9128.35 1116.53   3
  -7  -5   0 22241.6 1758.14   3
  -7  -5   1 343.945 379.547   3
  -7  -5   2 39456.9 2420.29   3
  -7  -5   3 20161.9 1741.18   3
  -7  -5   4 70511.7 3398.04   3
  -7  -5   5 45306.0 2726.52   3
  -7  -5   6 56673.6 3159.33   3
  -7  -5   7 36403.0 2547.80   3
  -7  -5   8 16379.3 1744.87   3
  -7  -5   9 14895.7 1702.38   3
  -7  -5  10 957.636 558.570   3
  -7  -4 -10 27134.0 2041.84   3
  -7  -4  -9 35594.0 2298.30   3
  -7  -4  -8 1963.00 578.807   3
  -7  -4  -7 20063.9 1685.80   3
  -7  -4  -6 140.881 268.638   3
  -7  -4  -5 3598.51 704.503   3
  -7  -4  -4 18210.6 1548.78   3
  -7  -4  -3 518.211 326.924   3
  -7  -4  -2 40092.8 2323.00   3
  -7  -4  -1 24.0389 251.705   3
  -7  -4   0 83733.9 3501.89   3
  -7  -4   1 23663.7 1794.25   3
  -7  -4   2 86083.4 3613.66   3
  -7  -4   3 39195.9 2396.70   3
  -7  -4   4 23254.0 1863.10   3
  -7  -4   5 46332.1 2714.44   3
  -7  -4   6 5494.77 937.870   3
  -7  -4   7 36637.1 2511.04   3
  -7  -4   8 8406.68 1221.78   3
  -7  -4   9 9236.38 1315.24   3
  -7  -4  10 10752.6 1462.07   3
  -7  -4  11 1817.56 656.640   3
  -7  -3  -9 64421.1 3167.18   3
  -7  -3  -8 23613.1 1843.36   3
  -7  -3  -7 2011.18 620.460   3
  -7  -3  -6 4734.05 825.563   3
  -7  -3  -5-5.21211 277.416   3
  -7  -3  -4 56408.8 2791.53   3
  -7  -3  -3 3169.03 666.568   3
  -7  -3  -2 108443. 4014.97   3
  -7  -3  -1 28750.4 1939.10   3
  -7  -3   0 51530.5 2657.19   3
  -7  -3   1 49769.1 2607.62   3
  -7  -3   2 3302.26 696.881   3
  -7  -3   3 34099.8 2189.89   3
  -7  -3   4 7098.82 1018.69   3
  -7  -3   5 18885.9 1666.87   3
  -7  -3   6 33924.8 2297.71   3
  -7  -3   7 18541.5 1741.76   3
  -7  -3   8 50769.3 2965.24   3
  -7  -3   9 280.020 361.410   3
  -7  -3  10 27368.2 2258.94   3
  -7  -3  11 3717.12 846.003   3
  -7  -2  -7 1024.07 449.118   3
  -7  -2  -6 66791.6 3110.42   3
  -7  -2  -5 20337.8 1661.48   3
  -7  -2  -4 36622.5 2229.47   3
  -7  -2  -3 48487.2 2555.78   3
  -7  -2  -2 411.114 325.721   3
  -7  -2  -1 84168.2 3431.22   3
  -7  -2   0 1340.76 482.044   3
  -7  -2   1 35895.1 2167.53   3
  -7  -2   2 32319.7 2089.14   3
  -7  -2   3 14458.1 1392.37   3
  -7  -2   4 43598.0 2490.92   3
  -7  -2   5 992.874 386.660   3
  -7  -2   6 37886.0 2379.83   3
  -7  -2   7 954.829 460.503   3
  -7  -2   8 27880.6 2112.98   3
  -7  -2   9 23780.7 2007.81   3
  -7  -2  10 12807.3 1505.00   3
  -7  -2  11 42076.2 2845.18   3
  -7  -1  -6 17719.6 1595.63   3
  -7  -1  -5 153516. 4987.51   3
  -7  -1  -4 7069.20 493.839   2
  -7  -1  -4 8829.02 1086.33   3
  -7  -1  -3 48166.1 2536.56   3
  -7  -1  -2 2938.08 631.203   3
  -7  -1  -1 3879.03 719.447   3
  -7  -1   0 26317.4 1824.11   3
  -7  -1   1 6446.97 898.489   3
  -7  -1   2 50817.6 2590.87   3
  -7  -1   3 114.737 304.047   3
  -7  -1   4 44410.2 2466.39   3
  -7  -1   5 8813.29 1110.98   3
  -7  -1   6 20051.1 1680.77   3
  -7  -1   7 24547.5 1912.55   3
  -7  -1   8 5310.00 928.676   3
  -7  -1   9 53269.6 2985.33   3
  -7  -1  10 1998.98 632.053   3
  -7  -1  11 57128.9 3241.40   3
  -7   0  -5 57542.5 2827.41   3
  -7   0  -5 49499.5 1237.95   2
  -7   0  -4 27627.5 1944.16   3
  -7   0  -3 4840.64 801.463   3
  -7   0  -2 38386.0 2237.24   3
  -7   0  -1-310.226 364.253   3
  -7   0   0 47847.5 2470.38   3
  -7   0   1 2002.83 533.964   3
  -7   0   2 39789.8 2252.73   3
  -7   0   3 19865.9 1577.06   3
  -7   0   4 8201.25 1014.19   3
  -7   0   5 83152.6 3467.43   3
  -7   0   6 7860.82 1019.08   3
  -7   0   7 29973.3 2052.47   3
  -7   0   8 1031.07 435.526   3
  -7   0   9 5910.28 956.702   3
  -7   0  10 16999.6 1662.56   3
  -7   0  11 11122.6 1371.40   3
  -7   1  -5 14988.0 1457.77   3
  -7   1  -4 135586. 4611.63   3
  -7   1  -3 538.261 356.088   3
  -7   1  -2 78106.1 3275.49   3
  -7   1  -1 2644.22 612.094   3
  -7   1   0 5071.06 796.939   3
  -7   1   1 57692.1 2711.39   3
  -7   1   2 5393.19 800.346   3
  -7   1   3 47054.9 2429.68   3
  -7   1   4 1918.16 491.194   3
  -7   1   5 43550.5 2390.64   3
  -7   1   6 10940.7 1199.27   3
  -7   1   7 18384.7 1552.66   3
  -7   1   8 27232.6 1951.04   3
  -7   1   9-101.449 238.830   3
  -7   1  10 22985.7 1862.60   3
  -7   1  11-408.131 404.610   3
  -7   2  -4 48247.3 2594.50   3
  -7   2  -3 24693.4 1816.83   3
  -7   2  -2 24761.8 1784.71   3
  -7   2  -1 61288.8 2838.85   3
  -7   2   0 1855.53 471.163   3
  -7   2   1 45969.2 2381.41   3
  -7   2   2 7755.25 957.710   3
  -7   2   3 20223.9 1541.60   3
  -7   2   4 39123.8 2193.02   3
  -7   2   5 5216.02 809.932   3
  -7   2   6 41205.8 2295.88   3
  -7   2   7-415.705 304.684   3
  -7   2   8 17637.7 1527.22   3
  -7   2   9 11264.6 1250.97   3
  -7   2  10 9166.42 1158.21   3
  -7   2  11 27431.1 2051.76   3
  -7   3  -4 12415.6 1314.27   3
  -7   3  -3 53082.3 2715.73   3
  -7   3  -2-201.920 273.279   3
  -7   3  -1 51126.2 2560.52   3
  -7   3   0 30573.8 1931.37   3
  -7   3   1 19772.4 1530.94   3
  -7   3   2 48467.0 2435.60   3
  -7   3   3 1326.55 455.300   3
  -7   3   4 30409.2 1885.11   3
  -7   3   5 14908.0 1315.00   3
  -7   3   6 12580.9 1208.50   3
  -7   3   7 33810.4 2043.07   3
  -7   3   8 8026.85 1013.57   3
  -7   3   9 30044.9 1984.39   3
  -7   3  10-16.0720 287.135   3
  -7   4  -4 27723.3 1986.67   3
  -7   4  -3 28325.6 1963.90   3
  -7   4  -2 50135.9 2606.65   3
  -7   4  -1 9991.96 1116.09   3
  -7   4   0 60731.7 2779.80   3
  -7   4   1 1060.68 377.027   3
  -7   4   2 15737.6 1326.55   3
  -7   4   3 20566.8 1504.68   3
  -7   4   4 22006.9 1545.42   3
  -7   4   5 22495.6 1569.95   3
  -7   4   6 2518.58 537.651   3
  -7   5  -4 49758.2 2722.00   3
  -7   5  -3 1416.72 475.519   3
  -7   5  -2 30406.9 2007.76   3
  -7   5  -1 3420.41 673.409   3
  -7   5   0 15342.9 1343.76   3
  -7   5   1 20071.2 1509.72   3
  -7   5   2 7372.77 884.075   3
  -7   5   3 22469.2 1534.89   3
  -7   6  -4 14779.3 1497.73   3
  -7   6  -3 7771.02 1047.44   3
  -7   6  -2 2762.66 632.198   3
  -7   6  -1 16742.5 1432.88   3
  -7   6   0 981.320 370.984   3
  -7   7  -4 2811.21 713.459   3
  -6 -11   0 11047.9 1313.89   3
  -6 -11   1 356.512 307.903   3
  -6 -10  -4 14142.9 1314.81   3
  -6 -10  -3 399.148 334.209   3
  -6 -10  -2 22451.4 1737.87   3
  -6 -10  -1 920.371 404.732   3
  -6 -10   0 25515.9 1932.01   3
  -6 -10   1 5608.00 940.734   3
  -6 -10   2 7958.98 1140.09   3
  -6 -10   3 15774.1 1630.32   3
  -6 -10   4-50.9523 420.739   3
  -6  -9  -7 8274.85 972.811   3
  -6  -9  -6 44961.4 2320.15   3
  -6  -9  -5 3519.80 669.380   3
  -6  -9  -4 33634.6 2037.56   3
  -6  -9  -3 3746.02 702.372   3
  -6  -9  -2 14079.2 1343.69   3
  -6  -9  -1 17603.5 1530.00   3
  -6  -9   0 2408.04 599.488   3
  -6  -9   1 27708.4 2021.08   3
  -6  -9   2 470.174 303.648   3
  -6  -9   3 8617.09 1173.98   3
  -6  -9   4 8158.04 1180.67   3
  -6  -9   5 2747.25 744.460   3
  -6  -8 -11 7078.23 943.302   3
  -6  -8 -10 42206.6 2297.02   3
  -6  -8  -9 1569.60 401.875   3
  -6  -8  -8 49819.7 2475.89   3
  -6  -8  -7 778.289 339.445   3
  -6  -8  -6 36585.5 2094.12   3
  -6  -8  -5 9280.27 1043.86   3
  -6  -8  -4 11196.4 1150.94   3
  -6  -8  -3 47968.7 2477.54   3
  -6  -8  -2 478.366 359.849   3
  -6  -8  -1 17414.7 1494.45   3
  -6  -8   0 8548.59 1090.08   3
  -6  -8   1 17910.2 1586.23   3
  -6  -8   2 40450.6 2457.04   3
  -6  -8   3 3294.49 762.098   3
  -6  -8   4 33385.7 2329.26   3
  -6  -8   5-40.0787 341.008   3
  -6  -8   6 19371.5 1862.59   3
  -6  -8   7 3808.20 886.172   3
  -6  -7 -14 33863.4 2237.71   3
  -6  -7 -13 415.600 351.842   3
  -6  -7 -12 41823.2 2415.96   3
  -6  -7 -11 861.132 366.558   3
  -6  -7 -10 32820.4 2041.19   3
  -6  -7  -9 5896.41 852.800   3
  -6  -7  -8 20255.6 1552.69   3
  -6  -7  -7 31452.8 1931.51   3
  -6  -7  -6 2224.46 558.511   3
  -6  -7  -5 55091.9 2593.51   3
  -6  -7  -4 3145.05 613.432   3
  -6  -7  -3 39171.4 2174.98   3
  -6  -7  -2 17875.7 1464.93   3
  -6  -7  -1 7276.54 947.655   3
  -6  -7   0 53145.5 2662.40   3
  -6  -7   1 5228.43 852.476   3
  -6  -7   2 45145.7 2529.78   3
  -6  -7   3 1814.31 567.426   3
  -6  -7   4 7718.13 1094.47   3
  -6  -7   5 23722.5 1941.54   3
  -6  -7   6 4589.22 883.622   3
  -6  -7   7 24064.2 2078.92   3
  -6  -7   8-7.42569 284.487   3
  -6  -6 -13 7140.63 1035.28   3
  -6  -6 -12 26263.7 1922.10   3
  -6  -6 -11 40847.9 2371.56   3
  -6  -6 -10 4451.66 772.562   3
  -6  -6  -9 55909.7 2704.10   3
  -6  -6  -8 242.905 300.182   3
  -6  -6  -7 51675.0 2524.47   3
  -6  -6  -6 4940.32 755.120   3
  -6  -6  -5 7417.21 938.514   3
  -6  -6  -4 87225.1 3345.83   3
  -6  -6  -3 19184.5 1495.17   3
  -6  -6  -2 62007.6 2782.47   3
  -6  -6  -1 1879.39 504.286   3
  -6  -6   0 19355.6 1538.25   3
  -6  -6   1 8693.40 1050.44   3
  -6  -6   2 16784.5 1480.89   3
  -6  -6   3 29055.9 2005.10   3
  -6  -6   4 3805.62 749.746   3
  -6  -6   5 53005.9 2874.93   3
  -6  -6   6 3461.82 780.061   3
  -6  -6   7 3308.16 761.227   3
  -6  -6   8 7311.16 1128.25   3
  -6  -6   9 103.855 309.379   3
  -6  -5 -11 121133. 4350.43   3
  -6  -5 -10 15173.3 1410.46   3
  -6  -5  -9 17928.8 1519.83   3
  -6  -5  -8 31476.9 1977.34   3
  -6  -5  -7 11777.5 1195.82   3
  -6  -5  -6 27229.1 1791.66   3
  -6  -5  -5-87.7597 287.816   3
  -6  -5  -4 60673.3 2663.87   3
  -6  -5  -4 48109.0 1191.45   6
  -6  -5  -3 8924.14 1021.65   3
  -6  -5  -2 42014.8 2222.66   3
  -6  -5  -1 18632.6 1467.01   3
  -6  -5   0 21240.0 1590.45   3
  -6  -5   1 25833.3 1778.19   3
  -6  -5   2 1361.38 421.881   3
  -6  -5   3 11508.3 1224.99   3
  -6  -5   4 5424.55 898.839   3
  -6  -5   5 8436.13 1106.75   3
  -6  -5   6 68461.9 3306.78   3
  -6  -5   7 761.294 414.804   3
  -6  -5   8 36195.2 1914.43   4
  -6  -5   8 37327.8 2517.96   3
  -6  -5   9 5459.42 995.954   3
  -6  -5  10 33802.2 2508.76   3
  -6  -4  -9 1517.39 571.597   3
  -6  -4  -8 52600.2 2611.47   3
  -6  -4  -7 5604.74 830.921   3
  -6  -4  -6 15875.9 1360.77   3
  -6  -4  -5 20272.7 1538.19   3
  -6  -4  -4 11397.6 1124.14   3
  -6  -4  -4 10198.5 638.997   6
  -6  -4  -3 57077.8 1577.35   6
  -6  -4  -3 60795.5 2680.23   3
  -6  -4  -2 21485.3 1560.22   3
  -6  -4  -1 56379.5 2599.60   3
  -6  -4   0 1614.99 442.497   3
  -6  -4   1 19315.3 1497.97   3
  -6  -4   2 34533.4 2058.00   3
  -6  -4   3 1727.47 498.997   3
  -6  -4   4 27157.0 1880.52   3
  -6  -4   5 1181.72 470.451   3
  -6  -4   6 68912.8 3233.46   3
  -6  -4   7 11842.0 1334.42   3
  -6  -4   8 44206.1 2215.87   4
  -6  -4   8 46367.9 2743.67   3
  -6  -4   9 14525.2 1289.85   4
  -6  -4   9 12105.9 1423.32   3
  -6  -4  10 4967.31 964.809   3
  -6  -4  10 3506.86 698.369   4
  -6  -4  11 15763.6 1490.14   4
  -6  -4  12 168.689 265.001   4
  -6  -4  13 19801.6 1820.93   4
  -6  -4  14 15986.8 1717.78   4
  -6  -3  -7 58699.5 2729.67   3
  -6  -3  -6 2459.00 557.881   3
  -6  -3  -5 60320.8 2715.63   3
  -6  -3  -4 166.317 314.077   3
  -6  -3  -3 54300.9 2524.42   3
  -6  -3  -2 27754.0 1752.24   3
  -6  -3  -1 53442.7 2501.16   3
  -6  -3   0 55897.5 2561.54   3
  -6  -3   1 11761.0 1153.40   3
  -6  -3   2 31257.4 1927.66   3
  -6  -3   3 4049.45 685.480   3
  -6  -3   4 20605.5 1597.77   3
  -6  -3   5 11703.5 1231.71   3
  -6  -3   6 25233.8 1874.32   3
  -6  -3   7 27522.8 1988.48   3
  -6  -3   8 4420.71 718.435   4
  -6  -3   8 5539.66 941.467   3
  -6  -3   9 57531.8 3098.52   3
  -6  -3   9 61002.0 2839.43   4
  -6  -3  10 25697.7 2088.74   3
  -6  -3  10 26191.8 1907.23   4
  -6  -3  11 23178.7 2039.36   3
  -6  -3  11 27940.3 2036.96   4
  -6  -3  12 23283.3 1940.69   4
  -6  -3  13 1930.89 639.975   4
  -6  -3  14 18741.5 1882.76   4
  -6  -3  15 621.948 511.704   4
  -6  -3  16 12210.6 1665.27   4
  -6  -3  17 5289.92 1124.37   4
  -6  -2  -6 25963.6 1761.87   3
  -6  -2  -5 81956.2 3232.23   3
  -6  -2  -4 65125.0 2814.69   3
  -6  -2  -3 19515.0 1465.52   3
  -6  -2  -2 46763.3 2297.92   3
  -6  -2  -1 543.634 387.695   3
  -6  -2   0 35684.0 1998.26   3
  -6  -2   1 34505.4 1960.63   3
  -6  -2   2 43607.8 2259.78   3
  -6  -2   3 54641.3 2585.70   3
  -6  -2   4 7752.74 964.932   3
  -6  -2   5 61240.7 2843.33   3
  -6  -2   6-179.689 268.409   3
  -6  -2   7 20054.4 1665.82   3
  -6  -2   8 12365.7 1343.06   3
  -6  -2   9 19873.4 1721.78   3
  -6  -2   9 19054.6 1590.60   4
  -6  -2  10 58923.0 2972.46   4
  -6  -2  10 52561.7 2957.44   3
  -6  -2  11-32.2191 225.018   4
  -6  -2  11 194.413 384.839   3
  -6  -2  12 22963.8 1986.73   4
  -6  -2  13 3716.21 865.903   4
  -6  -2  14 13856.5 1635.64   4
  -6  -2  15 7581.78 1254.42   4
  -6  -2  16 7407.00 1333.13   4
  -6  -2  17 20488.8 2221.55   4
  -6  -2  18 443.326 382.058   4
  -6  -1  -5 1833.39 507.271   3
  -6  -1  -4 118973. 3887.11   3
  -6  -1  -4 102358. 2496.52   2
  -6  -1  -3 11991.7 1148.03   3
  -6  -1  -3 10940.8 613.211   2
  -6  -1  -2 46713.9 2291.41   3
  -6  -1  -1 56794.4 2549.02   3
  -6  -1   0 8280.35 941.108   3
  -6  -1   1 97794.4 3453.77   3
  -6  -1   2 1325.12 405.267   3
  -6  -1   3 36508.5 2031.96   3
  -6  -1   4 17412.2 1414.53   3
  -6  -1   5 30953.6 1926.81   3
  -6  -1   6 56095.9 2686.63   3
  -6  -1   7 4412.08 762.464   3
  -6  -1   8 8425.42 1068.90   3
  -6  -1   9 1037.52 426.799   3
  -6  -1  10 42049.6 2556.10   3
  -6  -1  11 5629.30 963.236   4
  -6  -1  11 5863.81 970.124   3
  -6  -1  12 22826.6 2020.81   4
  -6  -1  13 29201.2 2362.85   4
  -6  -1  14 3399.53 891.467   4
  -6  -1  15 16138.4 1898.49   4
  -6  -1  16 177.897 352.298   4
  -6  -1  17 5917.20 1246.02   4
  -6   0  -5 52106.9 1499.07   2
  -6   0  -4 17999.0 654.047   2
  -6   0  -4 20561.3 1523.95   3
  -6   0  -3 107182. 3718.94   3
  -6   0  -2 10959.7 1086.33   3
  -6   0  -1 40847.9 2124.22   3
  -6   0   0 10302.2 1038.32   3
  -6   0   1 33331.2 1892.43   3
  -6   0   2 64066.4 2697.44   3
  -6   0   3 12425.4 1149.90   3
  -6   0   4 63137.3 2727.68   3
  -6   0   5 1411.23 431.598   3
  -6   0   6 71749.2 3018.74   3
  -6   0   7 439.610 326.594   3
  -6   0   8 13564.1 1312.07   3
  -6   0   9 17980.3 1551.51   3
  -6   0  10 7796.85 1061.02   3
  -6   0  11 35507.7 2343.31   3
  -6   0  13 21647.2 2082.18   4
  -6   0  14 4833.97 1070.71   4
  -6   0  15 9244.43 1439.22   4
  -6   0  16 5386.94 1151.87   4
  -6   0  17 2989.18 998.980   4
  -6   1  -6 146.596 87.2516   2
  -6   1  -5 95879.9 1951.94   2
  -6   1  -3 88597.8 3314.76   3
  -6   1  -2 5956.28 825.161   3
  -6   1  -1 30297.2 1804.53   3
  -6   1   0 57598.3 2523.82   3
  -6   1   1 11598.3 1084.33   3
  -6   1   2 97766.0 3384.98   3
  -6   1   3 3029.46 574.371   3
  -6   1   4 56855.3 2533.06   3
  -6   1   5 29513.6 1799.23   3
  -6   1   6 25237.7 1683.85   3
  -6   1   7 35228.6 2051.56   3
  -6   1   8 3828.26 685.010   3
  -6   1   9 22364.0 1687.11   3
  -6   1  10 7266.77 1001.38   3
  -6   1  11 15658.4 1503.15   3
  -6   2  -6 4431.56 359.511   2
  -6   2  -5 31914.3 796.327   2
  -6   2  -5 33114.1 802.088   2
  -6   2  -3 21003.3 1547.12   3
  -6   2  -2 82723.3 3151.18   3
  -6   2  -1 311.153 267.565   3
  -6   2   0 59279.5 2551.58   3
  -6   2   1 11022.7 1047.59   3
  -6   2   2 49562.3 2284.13   3
  -6   2   3 48334.3 2250.77   3
  -6   2   4 17283.5 1310.46   3
  -6   2   5 69128.4 2797.26   3
  -6   2   6 3902.21 637.889   3
  -6   2   7 22484.1 1576.94   3
  -6   2   8 4628.30 748.090   3
  -6   2   9 26438.6 1803.61   3
  -6   2  10 8896.55 1069.14   3
  -6   3  -8 11407.6 815.059   2
  -6   3  -7 16811.4 897.855   2
  -6   3  -6 34244.7 1188.92   2
  -6   3  -5 781.186 146.111   2
  -6   3  -3 1912.25 524.482   3
  -6   3  -2 50818.2 2421.88   3
  -6   3  -1 31940.0 1859.45   3
  -6   3   0 17443.4 1331.83   3
  -6   3   1 30617.5 1757.11   3
  -6   3   2 326.658 230.192   3
  -6   3   3 45474.3 2144.84   3
  -6   3   4 14527.3 1184.01   3
  -6   3   5 62125.2 2564.83   3
  -6   3   6 39313.3 2013.18   3
  -6   3   7 22539.9 1532.13   3
  -6   3   8 40454.9 2120.21   3
  -6   3   9 3925.92 683.037   3
  -6   3  10 47198.8 2421.52   3
  -6   4 -11 32650.8 1792.82   2
  -6   4 -10 22068.5 1387.26   2
  -6   4  -9 3031.78 490.231   2
  -6   4  -8 45616.1 1829.46   2
  -6   4  -7 368.686 202.415   2
  -6   4  -6 48033.7 1630.08   2
  -6   4  -5 2593.67 316.417   2
  -6   4  -2 2371.01 543.005   3
  -6   4  -1 55391.9 2507.08   3
  -6   4   0 38742.0 2018.82   3
  -6   4   1 43766.5 2111.10   3
  -6   4   2 77993.5 2883.37   3
  -6   4   3 75645.4 2789.49   3
  -6   4   4 40651.4 1958.32   3
  -6   4   5 42914.4 2026.63   3
  -6   4   6 58387.3 2416.46   3
  -6   4   7 915.895 310.082   3
  -6   4   8 38699.2 1988.62   3
  -6   5  -2 75458.3 3072.76   3
  -6   5  -1 54594.5 2502.05   3
  -6   5   0 64575.3 2649.01   3
  -6   5   1 24681.0 1546.04   3
  -6   5   2 43739.1 2034.86   3
  -6   5   3 2979.48 506.096   3
  -6   5   4 43003.2 1952.35   3
  -6   6  -2 26717.2 1774.50   3
  -6   6  -1 521.919 241.638   3
  -6   6   0 29517.8 1731.69   3
  -6   6   1 9567.26 926.779   3
  -6   7  -2 22914.4 1641.58   3
  -5 -10  -2 5112.36 765.720   3
  -5 -10  -1 31931.7 1974.62   3
  -5 -10   0 25438.1 1806.76   3
  -5 -10   1 4497.93 793.874   3
  -5 -10   2 19249.0 1673.82   3
  -5  -9  -6 77.9202 165.378   3
  -5  -9  -5 24297.4 1541.93   3
  -5  -9  -4 11664.6 1071.83   3
  -5  -9  -3 12675.0 1141.07   3
  -5  -9  -2 24692.6 1650.81   3
  -5  -9  -1 13554.8 1242.44   3
  -5  -9   0 50442.4 2529.75   3
  -5  -9   1-9.27824 235.265   3
  -5  -9   2 27299.8 1936.11   3
  -5  -9   3 2320.34 615.147   3
  -5  -9   4 11618.0 1314.76   3
  -5  -8  -9 21291.0 1442.16   3
  -5  -8  -8 633.377 305.051   3
  -5  -8  -7 20960.3 1412.45   3
  -5  -8  -6 18939.7 1342.74   3
  -5  -8  -5 7215.74 836.319   3
  -5  -8  -4 81355.0 3016.11   3
  -5  -8  -3 4033.21 680.332   3
  -5  -8  -2 28134.7 1727.22   3
  -5  -8  -1-131.031 193.553   3
  -5  -8   0 26862.8 1767.48   3
  -5  -8   1 36134.2 2121.80   3
  -5  -8   2 12720.8 1281.64   3
  -5  -8   3 48260.2 2596.44   3
  -5  -8   4 3563.66 742.626   3
  -5  -8   5 17555.0 1636.20   3
  -5  -8   6 7463.19 1109.48   3
  -5  -7 -13 42072.9 2309.34   3
  -5  -7 -12 58.8531 286.733   3
  -5  -7 -11 13577.5 1230.59   3
  -5  -7 -10 8095.88 939.978   3
  -5  -7  -9 6624.02 825.298   3
  -5  -7  -8 46298.8 2196.98   3
  -5  -7  -7 6978.77 817.948   3
  -5  -7  -7 5990.96 547.155   6
  -5  -7  -6 59594.0 2498.57   3
  -5  -7  -5 1817.45 404.567   3
  -5  -7  -4 32519.9 1793.93   3
  -5  -7  -3 51525.0 2325.97   3
  -5  -7  -2 32718.5 1859.10   3
  -5  -7  -1 27235.3 1715.84   3
  -5  -7   0 171.203 205.000   3
  -5  -7   1 41750.8 2227.59   3
  -5  -7   2 259.481 225.143   3
  -5  -7   3 44935.9 2437.23   3
  -5  -7   4 50071.3 2648.09   3
  -5  -7   5 23989.7 1855.57   3
  -5  -7   6 39451.9 2474.07   3
  -5  -7   7 2839.15 697.308   3
  -5  -6 -12 62068.7 2833.16   3
  -5  -6 -11 10849.3 1135.74   3
  -5  -6 -10 78224.9 3089.91   3
  -5  -6  -9 1513.46 426.701   3
  -5  -6  -8 36263.0 1950.28   3
  -5  -6  -7 13698.7 1168.90   3
  -5  -6  -6 15305.6 1205.05   3
  -5  -6  -5 53873.4 1354.47   6
  -5  -6  -5 58697.5 2446.39   3
  -5  -6  -4 4207.73 643.026   3
  -5  -6  -3 122799. 3790.87   3
  -5  -6  -2 2592.67 542.412   3
  -5  -6  -1 40639.6 2062.32   3
  -5  -6   0 13132.7 1199.95   3
  -5  -6   1 19275.6 1446.08   3
  -5  -6   2 20614.2 1534.82   3
  -5  -6   3 25868.4 1779.69   3
  -5  -6   4 88058.6 3515.95   3
  -5  -6   5 11729.3 1263.68   3
  -5  -6   6 52955.6 2813.90   3
  -5  -6   7 30508.2 2174.77   3
  -5  -6   8 11958.0 1381.66   3
  -5  -5  -9 62754.5 2711.17   3
  -5  -5  -8 13199.3 1169.92   3
  -5  -5  -7 71476.4 2819.23   3
  -5  -5  -6 226.755 218.070   3
  -5  -5  -5 43713.9 1361.79   6
  -5  -5  -5 47326.0 2168.18   3
  -5  -5  -4 16465.0 585.926   6
  -5  -5  -4 18970.5 1350.15   3
  -5  -5  -3 44002.8 2089.05   3
  -5  -5  -2 48147.3 2206.53   3
  -5  -5  -1 49191.7 2247.83   3
  -5  -5   0 51293.6 2338.34   3
  -5  -5   1 5138.44 744.658   3
  -5  -5   2 31024.3 1852.72   3
  -5  -5   3 21145.5 1575.06   3
  -5  -5   4 31634.8 1963.04   3
  -5  -5   5 42363.4 2356.74   3
  -5  -5   5 40775.0 1594.27   4
  -5  -5   6 16815.6 1511.67   3
  -5  -5   6 16300.7 1055.93   4
  -5  -5   7 37865.6 2349.90   3
  -5  -5   7 37387.2 1763.59   4
  -5  -5   8 878.689 323.356   4
  -5  -5   8 1125.14 475.329   3
  -5  -5   9 17067.4 1326.75   4
  -5  -5   9 17826.0 1685.09   3
  -5  -5  10 8702.04 1005.81   4
  -5  -5  11 7880.56 1035.60   4
  -5  -5  12 18004.2 1597.91   4
  -5  -5  13 1479.88 526.879   4
  -5  -4  -7 55167.1 2443.74   3
  -5  -4  -6 39271.9 2017.53   3
  -5  -4  -5 11234.2 1028.60   3
  -5  -4  -4 64356.0 2552.90   3
  -5  -4  -4 58481.6 1614.45   6
  -5  -4  -3 1928.72 206.895   6
  -5  -4  -3 1771.08 428.687   3
  -5  -4  -2 58204.8 2440.25   3
  -5  -4  -1 29633.3 1683.34   3
  -5  -4   0 71062.6 2774.55   3
  -5  -4   1 56555.5 2453.23   3
  -5  -4   2 8893.46 963.901   3
  -5  -4   3 35944.4 1994.71   3
  -5  -4   4-0.73742 221.017   3
  -5  -4   5 29675.1 1901.27   3
  -5  -4   5 30401.9 1433.25   4
  -5  -4   6 3336.90 662.881   3
  -5  -4   6 3889.44 547.508   4
  -5  -4   7 75447.8 2706.16   4
  -5  -4   7 69412.9 3170.73   3
  -5  -4   8 16627.9 1540.65   3
  -5  -4   8 19192.3 1367.54   4
  -5  -4   9 13214.6 1193.93   4
  -5  -4   9 12361.6 1369.67   3
  -5  -4  10 26523.7 1813.20   4
  -5  -4  11-157.959 290.104   4
  -5  -4  12 24505.0 1902.33   4
  -5  -4  13 3898.52 783.974   4
  -5  -4  14 11100.1 1397.64   4
  -5  -4  15 14714.4 1687.15   4
  -5  -4  16 533.896 373.938   4
  -5  -4  17 11336.3 1581.80   4
  -5  -3  -6 73459.6 2833.76   3
  -5  -3  -5 4011.36 625.964   3
  -5  -3  -4 108636. 3505.03   3
  -5  -3  -3 48041.3 1484.56   6
  -5  -3  -3 47867.8 2175.15   3
  -5  -3  -2 35135.7 1828.40   3
  -5  -3  -2 34922.4 1168.94   6
  -5  -3  -1 67227.9 2619.59   3
  -5  -3   0 695.260 303.615   3
  -5  -3   1 40455.2 2009.43   3
  -5  -3   2 7011.68 836.169   3
  -5  -3   3 68146.4 2788.48   3
  -5  -3   4 33947.3 1925.00   3
  -5  -3   5 26733.4 1416.31   4
  -5  -3   5 26652.1 1748.65   3
  -5  -3   6 9697.38 888.922   4
  -5  -3   6 8067.05 990.244   3
  -5  -3   7 12068.2 1047.91   4
  -5  -3   7 10915.4 1184.75   3
  -5  -3   8 26749.8 1908.92   3
  -5  -3   8 28808.9 1735.46   4
  -5  -3   9 11470.8 1155.04   4
  -5  -3   9 10642.0 1227.38   3
  -5  -3  10 65237.5 3252.10   3
  -5  -3  10 68488.7 3049.51   4
  -5  -3  11 24033.8 1831.41   4
  -5  -3  12 13876.2 1472.88   4
  -5  -3  13 26040.0 2098.08   4
  -5  -3  14-109.600 333.675   4
  -5  -3  15 22538.3 2113.17   4
  -5  -3  16 4106.18 938.006   4
  -5  -3  17 7349.51 1306.05   4
  -5  -3  18 7670.36 1365.93   4
  -5  -2  -5 56530.5 2422.06   3
  -5  -2  -4 36290.6 1875.64   3
  -5  -2  -3 61593.2 2491.53   3
  -5  -2  -2-83.1663 235.742   3
  -5  -2  -1 37385.5 1869.65   3
  -5  -2   0 93690.3 3138.38   3
  -5  -2   1 41145.5 1996.61   3
  -5  -2   2 32397.8 1770.67   3
  -5  -2   3 19430.2 1391.51   3
  -5  -2   4 42133.7 2115.14   3
  -5  -2   5 2995.87 580.442   3
  -5  -2   6 87101.2 3314.49   3
  -5  -2   6 87698.1 3029.79   4
  -5  -2   7 9759.02 1094.66   3
  -5  -2   7 10461.1 1014.78   4
  -5  -2   8 32515.0 1932.41   4
  -5  -2   8 34842.7 2115.73   3
  -5  -2   9 43904.8 2483.84   3
  -5  -2   9 47539.9 2442.05   4
  -5  -2  10 604.107 323.605   4
  -5  -2  10 651.325 393.362   3
  -5  -2  11 50522.0 2759.49   4
  -5  -2  12 1955.08 604.494   4
  -5  -2  13 19459.1 1837.05   4
  -5  -2  14 8867.37 1287.74   4
  -5  -2  15 11842.7 1548.61   4
  -5  -2  16 14251.8 1749.37   4
  -5  -2  17 797.824 549.885   4
  -5  -2  18 15358.6 1966.04   4
  -5  -1  -4 4315.31 434.767   2
  -5  -1  -4 5320.70 729.776   3
  -5  -1  -3 86314.2 2997.61   3
  -5  -1  -3 81390.0 2051.15   2
  -5  -1  -2 16896.1 1229.92   3
  -5  -1  -2 16359.0 729.982   2
  -5  -1  -1 76482.5 2762.96   3
  -5  -1   0 42150.1 1988.33   3
  -5  -1   1 6764.22 777.791   3
  -5  -1   2 102965. 3332.84   3
  -5  -1   3 19615.9 1354.00   3
  -5  -1   4 56463.6 2446.18   3
  -5  -1   5 89902.4 3220.25   3
  -5  -1   6 20229.6 1468.38   3
  -5  -1   7 50816.4 2403.90   4
  -5  -1   7 47830.7 2394.67   3
  -5  -1   8 5505.56 821.002   3
  -5  -1   8 5713.63 828.431   4
  -5  -1   9 23339.2 1718.48   3
  -5  -1   9 18569.3 1558.12   4
  -5  -1  10 28253.4 1970.06   3
  -5  -1  10 28971.1 2011.77   4
  -5  -1  11 23749.0 1906.79   4
  -5  -1  12 20926.1 1852.69   4
  -5  -1  13 6992.61 1118.43   4
  -5  -1  14 31378.0 2455.14   4
  -5  -1  15 231.710 306.194   4
  -5  -1  16 21777.7 2211.27   4
  -5  -1  17 3402.09 952.564   4
  -5  -1  18 4116.91 1092.27   4
  -5   0  -5 82735.4 2092.22   2
  -5   0  -4 40337.1 1197.49   2
  -5   0  -3 40381.4 1932.62   3
  -5   0  -3 33234.3 901.815   2
  -5   0  -2 26256.6 1561.49   3
  -5   0  -1 1526.24 414.455   3
  -5   0   0 33538.2 1727.79   3
  -5   0   1 110606. 3409.79   3
  -5   0   2 26867.8 1526.40   3
  -5   0   3 189966. 4863.73   3
  -5   0   4 11559.3 1022.64   3
  -5   0   5 71172.9 2757.83   3
  -5   0   6 13321.1 1155.76   3
  -5   0   7 39682.2 2097.42   3
  -5   0   8 16104.1 1352.10   3
  -5   0   8 17872.3 1494.08   4
  -5   0   9 7971.31 1002.48   3
  -5   0   9 9376.02 1130.89   4
  -5   0  10 40592.2 2481.06   4
  -5   0  10 43543.9 2414.23   3
  -5   0  11 231.281 292.032   4
  -5   0  12 47648.4 2882.94   4
  -5   0  13 2889.21 770.857   4
  -5   0  14 11929.2 1549.68   4
  -5   0  15 12225.3 1619.18   4
  -5   0  16 7228.49 1296.54   4
  -5   0  17 17994.8 2109.54   4
  -5   0  18-49.0622 360.286   4
  -5   1  -4 46820.7 1114.40   2
  -5   1  -2 7711.42 832.850   3
  -5   1  -1 103762. 3305.18   3
  -5   1   0 3222.09 545.485   3
  -5   1   1 97297.2 3126.21   3
  -5   1   2 1190.30 343.679   3
  -5   1   3 93556.3 3075.59   3
  -5   1   4 33616.8 1738.34   3
  -5   1   5 15247.9 1174.85   3
  -5   1   6 44893.3 2121.31   3
  -5   1   7 984.085 357.458   3
  -5   1   8 65442.5 2746.24   3
  -5   1   9 4209.91 697.345   3
  -5   1  10 32436.7 2261.49   4
  -5   1  10 33460.7 2028.14   3
  -5   1  11 15315.0 1590.33   4
  -5   1  12 7594.91 1185.35   4
  -5   1  13 25692.5 2230.58   4
  -5   1  14-12.4194 414.303   4
  -5   1  15 24419.9 2330.21   4
  -5   1  16 931.924 524.530   4
  -5   1  17 21416.0 2329.24   4
  -5   1  18 3461.08 969.315   4
  -5   2  -5 43779.2 1259.14   2
  -5   2  -4 7412.18 369.889   2
  -5   2  -2 924.502 384.636   3
  -5   2  -1 48794.2 2141.54   3
  -5   2   0 2963.42 506.504   3
  -5   2   1 30875.7 1613.88   3
  -5   2   2 18137.5 1213.62   3
  -5   2   3 22134.2 1343.33   3
  -5   2   4 111161. 3373.28   3
  -5   2   5 520.245 223.733   3
  -5   2   6 46829.6 2098.46   3
  -5   2   7 19076.4 1341.73   3
  -5   2   8 8537.02 935.713   3
  -5   2   9 18117.7 1388.27   3
  -5   2  10 539.575 264.416   3
  -5   2  12 2183.23 719.248   4
  -5   2  13 48199.9 3151.18   4
  -5   2  14 19103.8 2029.96   4
  -5   2  15 17623.7 2029.68   4
  -5   2  16 18137.5 2147.23   4
  -5   2  17 2632.66 877.549   4
  -5   3  -7 69814.3 2164.40   2
  -5   3  -6 7240.18 573.117   2
  -5   3  -5 76572.4 1996.59   2
  -5   3  -4 1054.47 180.668   2
  -5   3  -3 33064.7 909.090   2
  -5   3  -1 10792.7 989.978   3
  -5   3   0 61427.6 2383.68   3
  -5   3   1 6123.16 694.649   3
  -5   3   2 55272.7 2186.32   3
  -5   3   3 128.076 149.579   3
  -5   3   4 23431.8 1368.81   3
  -5   3   5 1934.64 425.317   3
  -5   3   6 1525.33 369.555   3
  -5   3   7 29499.3 1619.74   3
  -5   3   8 14831.5 1165.39   3
  -5   3   9 85342.0 3084.79   3
  -5   4 -10 4824.27 666.314   2
  -5   4  -9 70137.8 2576.91   2
  -5   4  -8 22.0519 183.944   2
  -5   4  -7 62356.9 2173.39   2
  -5   4  -6 13690.5 897.446   2
  -5   4  -5 70542.5 2119.36   2
  -5   4  -4 11469.0 722.971   2
  -5   4  -3 5625.48 460.928   2
  -5   4  -2 72253.7 1794.89   2
  -5   4  -1 5026.96 681.862   3
  -5   4   0 17761.1 1227.64   3
  -5   4   1 6187.31 706.635   3
  -5   4   2 691.506 320.273   3
  -5   4   3 8742.57 795.985   3
  -5   4   4 212.791 179.105   3
  -5   4   5 44507.4 1877.98   3
  -5   4   6 8894.76 826.126   3
  -5   4   7 114579. 3369.10   3
  -5   4   8 53540.7 2192.09   3
  -5   4   9 45539.9 2064.54   3
  -5   5 -15 9516.09 1225.95   2
  -5   5 -14 11606.2 1297.03   2
  -5   5 -13 15207.6 1422.46   2
  -5   5 -12 2828.58 616.486   2
  -5   5 -11 35256.7 2042.61   2
  -5   5 -10 1299.48 416.148   2
  -5   5  -9 43575.4 2090.21   2
  -5   5  -8 19744.2 1322.88   2
  -5   5  -7 5436.23 654.531   2
  -5   5  -6 62756.1 2285.48   2
  -5   5  -5 2583.34 426.238   2
  -5   5  -4 48110.5 1827.28   2
  -5   5  -3 533.892 215.488   2
  -5   5  -2 9482.65 688.300   2
  -5   5  -1 38870.0 1937.98   3
  -5   5  -1 44303.2 1524.15   2
  -5   5   0 1325.02 390.072   3
  -5   5   1 31147.9 1581.23   3
  -5   5   2 4694.25 573.583   3
  -5   5   3 84054.8 2640.94   3
  -5   5   4 8667.92 750.180   3
  -5   5   5 72876.7 2367.60   3
  -5   5   6 30693.3 1446.93   3
  -5   6 -15 28369.6 2201.11   2
  -5   6 -14 1145.49 507.116   2
  -5   6 -13 18065.9 1632.43   2
  -5   6 -12 2287.40 556.184   2
  -5   6 -11 7719.47 996.514   2
  -5   6 -10 21900.9 1618.34   2
  -5   6  -9 3105.87 606.633   2
  -5   6  -8 49750.0 2333.67   2
  -5   6  -7 5433.14 711.637   2
  -5   6  -6 46187.8 2093.61   2
  -5   6  -5 19804.8 1310.02   2
  -5   6  -4 24605.3 1407.94   2
  -5   6  -3 10221.6 873.367   2
  -5   6  -2 962.024 297.268   2
  -5   6  -1 53489.8 2293.17   3
  -5   6  -1 53682.1 1974.29   2
  -5   6   0 2041.60 417.765   3
  -5   6   1 63670.2 2318.82   3
  -5   6   2 48509.6 1905.41   3
  -5   7  -6 4082.92 666.542   2
  -5   7  -5 27513.9 1706.39   2
  -5   7  -4 220.195 250.612   2
  -5   7  -3 37997.8 1903.70   2
  -5   7  -1 17549.6 1269.69   3
  -4 -10  -1 30695.1 1790.95   3
  -4  -9  -4 20889.7 1297.97   3
  -4  -9  -3 39475.5 1875.61   3
  -4  -9  -2 9341.34 916.402   3
  -4  -9  -1 8838.37 923.568   3
  -4  -9   0 387.795 263.128   3
  -4  -9   1 28127.6 1793.35   3
  -4  -9   2 12998.2 1253.22   3
  -4  -8 -10 30046.0 1781.86   6
  -4  -8  -9 5856.14 713.844   6
  -4  -8  -8 29318.5 1560.44   6
  -4  -8  -8 30057.4 1500.63   3
  -4  -8  -7 29962.9 1472.16   6
  -4  -8  -7 29020.1 1474.42   3
  -4  -8  -6 17090.0 1124.92   3
  -4  -8  -5 27513.9 1461.70   3
  -4  -8  -4 952.717 293.689   3
  -4  -8  -3 23419.5 1396.02   3
  -4  -8  -2 3046.52 524.224   3
  -4  -8  -1 6197.66 759.489   3
  -4  -8   0 6532.93 810.027   3
  -4  -8   1 20340.8 1488.00   3
  -4  -8   2 72245.6 2988.65   3
  -4  -8   3 38.2153 204.944   3
  -4  -8   4 36936.3 2221.32   3
  -4  -7 -11 19581.0 1345.45   3
  -4  -7 -10 15978.5 1171.77   3
  -4  -7  -9 22090.8 1362.33   3
  -4  -7  -8-100.661 215.474   3
  -4  -7  -7 31995.3 1464.24   6
  -4  -7  -7 29017.7 1526.59   3
  -4  -7  -6 2251.24 352.715   6
  -4  -7  -6 2366.82 443.512   3
  -4  -7  -5 4912.71 442.717   6
  -4  -7  -5 5838.46 661.952   3
  -4  -7  -4 41972.8 1853.75   3
  -4  -7  -4 38268.1 1126.97   6
  -4  -7  -3 48324.0 2043.36   3
  -4  -7  -2 67989.6 2534.45   3
  -4  -7  -1 2127.13 450.054   3
  -4  -7   0 20918.9 1396.02   3
  -4  -7   1 5367.50 739.947   3
  -4  -7   2 40105.9 2091.67   3
  -4  -7   3 30045.5 1855.93   3
  -4  -7   4 23445.6 1691.49   3
  -4  -7   5 62622.4 2936.89   3
  -4  -6 -10 965.619 346.933   3
  -4  -6  -9 36438.1 1827.48   3
  -4  -6  -8 11311.8 970.810   3
  -4  -6  -7 22808.2 1364.44   3
  -4  -6  -6 55181.3 2167.18   3
  -4  -6  -5 1109.34 228.758   4
  -4  -6  -5 997.606 202.470   6
  -4  -6  -5 542.520 251.823   3
  -4  -6  -4 68902.3 1601.38   6
  -4  -6  -4 72392.3 2505.90   3
  -4  -6  -3 3883.47 559.724   3
  -4  -6  -2 74568.6 2616.63   3
  -4  -6  -1 30370.5 1619.66   3
  -4  -6   0 22468.4 1427.38   3
  -4  -6   1 24000.7 1503.78   3
  -4  -6   2 7682.71 863.633   3
  -4  -6   3 61447.5 2620.32   3
  -4  -6   3 54683.5 1310.68   4
  -4  -6   4 171.236 225.578   3
  -4  -6   4 42.9708 73.8294   4
  -4  -6   5 81473.8 2254.96   4
  -4  -6   5 72408.6 3120.27   3
  -4  -6   6 31334.2 2045.19   3
  -4  -6   6 30094.5 1398.24   4
  -4  -6   7 29815.0 1516.93   4
  -4  -6   8 31325.9 1665.88   4
  -4  -6   9-33.9349 172.468   4
  -4  -6  10 33459.0 1960.22   4
  -4  -6  11 7223.28 950.267   4
  -4  -6  12 23068.9 1791.08   4
  -4  -5  -8 68112.0 2563.00   3
  -4  -5  -7 2052.28 434.685   3
  -4  -5  -6 76994.6 2658.07   3
  -4  -5  -5 28001.4 1496.14   3
  -4  -5  -4 32903.3 1022.82   6
  -4  -5  -4 33912.8 1656.86   3
  -4  -5  -3 51153.6 2060.30   3
  -4  -5  -2 19209.0 1227.92   3
  -4  -5  -1 55929.6 2208.42   3
  -4  -5   0 1631.72 374.474   3
  -4  -5   1 111692. 3453.34   3
  -4  -5   2 29849.9 1683.71   3
  -4  -5   3 30164.9 1746.86   3
  -4  -5   3 31590.5 1028.48   4
  -4  -5   4 48383.8 2339.14   3
  -4  -5   4 54434.6 1640.70   4
  -4  -5   5 3571.16 432.061   4
  -4  -5   5 3398.20 640.971   3
  -4  -5   6 44293.6 2356.93   3
  -4  -5   6 46545.7 1825.30   4
  -4  -5   7 7464.49 757.301   4
  -4  -5   7 7040.45 976.141   3
  -4  -5   8 52377.7 2242.61   4
  -4  -5   9 8286.18 920.222   4
  -4  -5  10 17693.7 1424.19   4
  -4  -5  11 26223.2 1833.84   4
  -4  -5  12 3410.56 723.174   4
  -4  -5  13 28490.4 2116.52   4
  -4  -5  14 4105.53 872.866   4
  -4  -5  15 19838.0 1903.20   4
  -4  -5  16 3996.34 918.664   4
  -4  -4  -6 10863.5 937.873   3
  -4  -4  -5 42164.2 1469.77   6
  -4  -4  -5 42931.5 1891.32   3
  -4  -4  -4 4469.70 369.827   6
  -4  -4  -4 5609.47 677.428   3
  -4  -4  -3 145788. 3745.99   3
  -4  -4  -3 128566. 2416.88   6
  -4  -4  -2 76162.0 2576.40   3
  -4  -4  -1 82371.4 2727.48   3
  -4  -4   0 107480. 3238.56   3
  -4  -4   1 17563.8 1220.89   3
  -4  -4   2 81198.0 2854.14   3
  -4  -4   3 7200.31 513.065   4
  -4  -4   3 8692.65 897.268   3
  -4  -4   4 49824.1 2285.01   3
  -4  -4   4 49210.6 1649.08   4
  -4  -4   5 14380.8 1232.25   3
  -4  -4   5 13641.8 894.673   4
  -4  -4   6 50251.6 2440.95   3
  -4  -4   6 51365.9 1988.77   4
  -4  -4   7 10563.4 926.597   4
  -4  -4   7 9770.51 1090.40   3
  -4  -4   8 3033.33 642.275   3
  -4  -4   8 3389.74 559.760   4
  -4  -4   9 30146.2 1790.49   4
  -4  -4  10 220.372 261.850   4
  -4  -4  11 64147.7 2979.96   4
  -4  -4  12 763.277 439.684   4
  -4  -4  13 23617.5 1922.49   4
  -4  -4  14 17876.2 1762.95   4
  -4  -4  15 414.557 388.228   4
  -4  -4  16 13093.5 1636.33   4
  -4  -4  17 970.947 557.125   4
  -4  -4  18 15131.2 1884.62   4
  -4  -4  19 4052.27 1074.87   4
  -4  -3  -5 196518. 4787.98   3
  -4  -3  -4 39634.1 1337.45   6
  -4  -3  -4 42693.2 1852.01   3
  -4  -3  -3 120613. 2545.26   6
  -4  -3  -3 126189. 3460.50   3
  -4  -3  -2 160068. 4043.87   3
  -4  -3  -2 154423. 2866.34   6
  -4  -3  -1 9206.25 838.829   3
  -4  -3   0 52351.7 2094.72   3
  -4  -3   1 52937.5 2128.31   3
  -4  -3   2 123090. 3575.70   3
  -4  -3   3 3872.44 611.835   3
  -4  -3   3 4577.59 453.899   4
  -4  -3   4 21773.9 1428.33   3
  -4  -3   4 21020.9 1079.63   4
  -4  -3   5 21753.1 1471.75   3
  -4  -3   5 21539.5 1183.63   4
  -4  -3   6 4005.77 549.855   4
  -4  -3   6 4538.00 704.781   3
  -4  -3   7 42693.5 1963.75   4
  -4  -3   7 42974.7 2242.22   3
  -4  -3   8 6760.10 802.398   4
  -4  -3   8 4957.08 773.915   3
  -4  -3   9 31567.9 2042.51   3
  -4  -3   9 30814.2 1841.94   4
  -4  -3  10 25696.4 1762.40   4
  -4  -3  11 17211.1 1519.25   4
  -4  -3  12 20443.1 1739.21   4
  -4  -3  13 493.738 364.173   4
  -4  -3  14 38810.7 2620.74   4
  -4  -3  15 4638.28 949.201   4
  -4  -3  16 15546.1 1809.23   4
  -4  -3  17 11562.5 1581.59   4
  -4  -3  18 1213.93 599.817   4
  -4  -3  19 13368.4 1835.46   4
  -4  -2  -4 63706.3 2341.12   3
  -4  -2  -3 562.485 180.714   6
  -4  -2  -3 803.138 333.379   3
  -4  -2  -2 119473. 2650.18   6
  -4  -2  -2 124528. 3411.47   3
  -4  -2  -1 6665.82 706.501   3
  -4  -2  -1 8088.11 522.373   6
  -4  -2   0 65592.4 2340.60   3
  -4  -2   1 83485.6 2717.36   3
  -4  -2   2 767.942 303.235   3
  -4  -2   3 64815.4 2429.82   3
  -4  -2   4 36.5989 166.080   3
  -4  -2   4 56.7965 141.315   4
  -4  -2   5 84204.2 3006.98   3
  -4  -2   5 89430.3 2743.63   4
  -4  -2   6 8579.08 836.639   4
  -4  -2   6 7309.81 848.061   3
  -4  -2   7 82783.6 3119.15   3
  -4  -2   7 83028.0 2929.15   4
  -4  -2   8 12745.7 1198.85   3
  -4  -2   8 12853.4 1137.98   4
  -4  -2   9 4238.01 687.852   4
  -4  -2   9 3676.52 681.556   3
  -4  -2  10 55671.8 2721.17   4
  -4  -2  11 4697.17 813.260   4
  -4  -2  12 31905.2 2201.56   4
  -4  -2  13 5223.80 941.362   4
  -4  -2  14 11497.2 1446.18   4
  -4  -2  15 20389.0 1981.57   4
  -4  -2  16 763.175 631.195   4
  -4  -2  17 29274.3 2563.44   4
  -4  -2  18 6107.02 1248.71   4
  -4  -2  19 8355.65 1456.85   4
  -4  -1  -4 103831. 2558.54   2
  -4  -1  -3 21337.6 922.974   2
  -4  -1  -3 22896.1 1322.11   3
  -4  -1  -2 49339.9 1400.67   2
  -4  -1  -2 51589.1 2004.83   3
  -4  -1  -1 25662.4 905.641   2
  -4  -1  -1 23954.8 1323.27   3
  -4  -1   0 2730.98 458.849   3
  -4  -1   1 203517. 4752.94   3
  -4  -1   2 15815.9 1082.05   3
  -4  -1   3 184898. 4550.91   3
  -4  -1   4 11372.6 953.458   3
  -4  -1   4 12171.6 912.430   4
  -4  -1   5 33090.6 1633.67   4
  -4  -1   5 33989.1 1727.66   3
  -4  -1   6 42878.8 1977.47   4
  -4  -1   6 42085.3 2028.88   3
  -4  -1   7 502.491 237.477   3
  -4  -1   7 362.997 271.267   4
  -4  -1   8 29033.4 1779.12   3
  -4  -1   8 32763.5 1886.36   4
  -4  -1   9 25245.0 1707.59   3
  -4  -1   9 24012.9 1692.32   4
  -4  -1  10 10755.4 1182.29   4
  -4  -1  11 59209.8 2964.27   4
  -4  -1  12 1317.29 497.557   4
  -4  -1  13 36712.0 2495.74   4
  -4  -1  14-128.507 379.812   4
  -4  -1  15 21929.5 2086.10   4
  -4  -1  16 2701.63 804.713   4
  -4  -1  17 13018.4 1728.15   4
  -4  -1  18 22566.1 2375.14   4
  -4  -1  19-35.1129 412.741   4
  -4   0  -4 4690.84 374.448   2
  -4   0  -3 144913. 2740.77   2
  -4   0  -2 17713.4 545.283   2
  -4   0  -2 20531.4 1217.88   3
  -4   0  -1 116904. 3250.15   3
  -4   0   0 4448.40 552.859   3
  -4   0   1 200161. 4642.21   3
  -4   0   2 75781.5 2491.67   3
  -4   0   3 139.371 166.843   3
  -4   0   4 99500.4 3038.83   3
  -4   0   5 29094.9 1601.79   4
  -4   0   5 29252.7 1545.02   3
  -4   0   6 28306.8 1652.72   4
  -4   0   6 29129.4 1600.13   3
  -4   0   7 59007.4 2428.12   3
  -4   0   7 60968.4 2601.77   4
  -4   0   8 10514.5 1017.18   3
  -4   0   8 8501.76 980.136   4
  -4   0   9 64803.0 2747.48   3
  -4   0   9 68517.9 3011.41   4
  -4   0  10 486.471 354.188   4
  -4   0  11 53587.5 2854.36   4
  -4   0  12 7423.03 1099.39   4
  -4   0  13 14304.2 1574.26   4
  -4   0  14 13100.9 1563.36   4
  -4   0  15 3406.78 873.410   4
  -4   0  16 25405.0 2349.83   4
  -4   0  17 1619.72 652.861   4
  -4   0  18 20856.8 2288.40   4
  -4   0  19 5781.84 1263.44   4
  -4   1  -3 60225.4 1219.72   2
  -4   1  -1 41179.6 1750.43   3
  -4   1   0 136333. 3554.91   3
  -4   1   1 2039.81 371.180   3
  -4   1   2 93694.6 2771.36   3
  -4   1   3 61596.7 2180.78   3
  -4   1   4 28008.2 1437.49   3
  -4   1   5 89739.3 2839.12   3
  -4   1   6 6482.76 726.324   3
  -4   1   7 67385.9 2520.44   3
  -4   1   7 62662.0 2755.60   4
  -4   1   8 1871.64 524.824   4
  -4   1   8 2475.83 487.771   3
  -4   1   9 41144.9 2079.84   3
  -4   1   9 43024.8 2405.98   4
  -4   1  10 8277.08 1111.96   4
  -4   1  11 10808.0 1298.56   4
  -4   1  12 44575.7 2758.18   4
  -4   1  13 1201.01 544.064   4
  -4   1  14 25165.9 2214.45   4
  -4   1  15 1311.89 539.976   4
  -4   1  16 6810.56 1258.87   4
  -4   1  17 6000.17 1245.48   4
  -4   1  18 939.120 554.850   4
  -4   1  19 21134.8 2392.07   4
  -4   2  -4 218622. 3965.70   2
  -4   2  -3 5605.26 333.419   2
  -4   2  -1 59593.5 2175.59   3
  -4   2   0 35460.2 1598.97   3
  -4   2   1 48225.6 1865.93   3
  -4   2   2 24523.6 1266.49   3
  -4   2   3 85751.2 2605.60   3
  -4   2   4 10349.9 822.868   3
  -4   2   5 55422.2 2071.09   3
  -4   2   6 10733.6 884.763   3
  -4   2   7 18148.2 1199.34   3
  -4   2   8 51945.9 2180.93   3
  -4   2   8 49800.2 2612.46   4
  -4   2   9 12125.1 1061.08   3
  -4   2   9 13830.6 1384.56   4
  -4   2  10 52986.4 2876.51   4
  -4   2  11 6813.00 1045.04   4
  -4   2  12 19289.0 1817.19   4
  -4   2  13 4110.09 896.507   4
  -4   2  14 1090.65 510.558   4
  -4   2  15 30175.6 2560.66   4
  -4   2  16 3504.12 941.599   4
  -4   2  17 21461.9 2310.48   4
  -4   2  18 7760.45 1481.41   4
  -4   3  -6 149313. 3499.61   2
  -4   3  -5 208.267 148.122   2
  -4   3  -4 67767.8 1852.14   2
  -4   3  -3 52712.0 1501.25   2
  -4   3  -2 975.141 183.252   2
  -4   3  -1 148893. 2864.22   2
  -4   3   0 11435.3 889.221   3
  -4   3   1 63967.5 2166.07   3
  -4   3   2 1567.38 329.079   3
  -4   3   3 67942.5 2200.62   3
  -4   3   4 15366.9 965.187   3
  -4   3   5 20287.0 1144.81   3
  -4   3   6 37395.2 1628.18   3
  -4   3   7 2595.94 433.258   3
  -4   3   8 29726.4 1548.73   3
  -4   3  10 11171.1 1348.85   4
  -4   3  11 18558.3 1774.30   4
  -4   3  12 750.677 490.781   4
  -4   3  13 40358.0 2827.33   4
  -4   3  14 6276.61 1156.57   4
  -4   3  15 45669.0 3251.23   4
  -4   3  16 7467.33 1354.60   4
  -4   3  17 14276.0 1929.22   4
  -4   3  18 12948.9 1901.83   4
  -4   4  -8 53326.3 2157.16   2
  -4   4  -7 23196.2 1306.51   2
  -4   4  -6 28743.9 1391.91   2
  -4   4  -5 55735.9 1930.71   2
  -4   4  -4 51927.6 1791.30   2
  -4   4  -3 43587.8 1581.33   2
  -4   4  -2 1354.21 258.535   2
  -4   4  -1 79362.6 2125.46   2
  -4   4   0 67525.5 2325.10   3
  -4   4   0 72435.2 1977.18   2
  -4   4   1 9556.91 766.667   3
  -4   4   2 41562.3 1627.90   3
  -4   4   3 3054.49 417.869   3
  -4   4   4 42264.6 1606.23   3
  -4   4   5 4358.84 487.266   3
  -4   4   6 26492.9 1279.03   3
  -4   4   7 15583.5 986.505   3
  -4   4   8 8159.07 745.305   3
  -4   4  14 10323.7 1526.10   4
  -4   4  15 6310.86 1248.57   4
  -4   4  16 19307.2 2198.14   4
  -4   4  17 557.547 507.989   4
  -4   5 -12 24232.2 1771.74   2
  -4   5 -11 1452.67 438.676   2
  -4   5 -10 18145.2 1406.36   2
  -4   5  -9 30083.4 1753.36   2
  -4   5  -8 17635.1 1274.52   2
  -4   5  -7 48678.9 2118.00   2
  -4   5  -6 1906.92 413.249   2
  -4   5  -5 85211.9 2750.81   2
  -4   5  -4 2632.61 441.871   2
  -4   5  -3 12510.4 927.774   2
  -4   5  -2 36367.9 1583.14   2
  -4   5  -1 4083.49 495.334   2
  -4   5   0 80984.0 2587.45   3
  -4   5   0 83292.7 2465.91   2
  -4   5   1 1222.77 290.442   3
  -4   5   2 41146.7 1590.59   3
  -4   5   3 5789.01 542.895   3
  -4   5   4 58578.7 1841.02   3
  -4   5   5 23048.6 1068.90   3
  -4   5   6 16879.5 912.528   3
  -4   5   7 50870.8 1749.37   3
  -4   6 -19 5235.28 1131.63   2
  -4   6 -18 5139.57 1083.14   2
  -4   6 -17 1154.01 541.830   2
  -4   6 -16 20882.4 2004.51   2
  -4   6 -15 1874.49 609.888   2
  -4   6 -14 13793.1 1531.55   2
  -4   6 -13 12142.8 1370.86   2
  -4   6 -12 9492.87 1174.29   2
  -4   6 -11 32649.1 2103.48   2
  -4   6 -10 2987.40 622.495   2
  -4   6  -9 49763.3 2454.27   2
  -4   6  -8 553.995 308.496   2
  -4   6  -7 25737.4 1637.15   2
  -4   6  -6 30176.6 1724.63   2
  -4   6  -5 15471.4 1195.76   2
  -4   6  -4 40461.9 1959.36   2
  -4   6  -3 112.326 250.900   2
  -4   6  -2 27090.5 1515.82   2
  -4   6  -1 348.909 185.856   2
  -4   6   0 76273.0 2490.68   3
  -4   6   0 77834.5 2610.75   2
  -4   6   1 22548.1 1322.50   2
  -4   6   1 23856.0 1208.68   3
  -4   6   2 46017.4 1625.07   3
  -4   6   3 50063.4 1602.51   3
  -4   7 -18 8737.65 1434.14   2
  -4   7 -17 1311.94 574.589   2
  -4   7 -16 8590.77 1325.19   2
  -4   7 -15 25388.3 2210.87   2
  -4   7 -14 2966.20 758.531   2
  -4   7 -13 24604.7 2053.65   2
  -4   7 -12 194.051 340.779   2
  -4   7 -11 33946.2 2267.37   2
  -4   7 -10 11914.9 1288.67   2
  -4   7  -9 15844.6 1444.86   2
  -4   7  -8 29051.0 1916.23   2
  -4   7  -7 1751.91 548.352   2
  -4   7  -6 12159.6 1183.38   2
  -4   7  -5 449.046 294.924   2
  -4   7  -4 28133.8 1767.68   2
  -4   7  -3 8090.06 931.492   2
  -4   7  -2 47927.4 2243.44   2
  -4   7  -1 45794.0 2161.75   2
  -4   7   0 11220.2 1021.63   2
  -4   7   0 11700.4 892.018   3
  -4   7   1 53321.8 2312.16   2
  -4   8 -14 2548.19 757.501   2
  -4   8 -13 12908.0 1553.89   2
  -4   8 -12 16639.5 1756.38   2
  -4   8 -11 4354.55 877.040   2
  -4   8 -10 21303.2 1855.64   2
  -4   8  -9 553.858 382.783   2
  -4   8  -8 25326.4 1939.11   2
  -4   8  -7 3037.92 681.505   2
  -4   8  -6 22794.3 1763.92   2
  -4   8  -5 15004.9 1413.18   2
  -4   8  -4 9961.90 1117.64   2
  -4   8  -3 44480.2 2379.04   2
  -4   8  -2 422.784 276.541   2
  -4   8  -1 45171.6 2329.73   2
  -4   8   0 19570.6 1466.74   2
  -4   8   1 9203.51 984.580   2
  -4   8   2 18892.3 1443.62   2
  -4   9  -8 31049.5 2284.50   2
  -4   9  -7 36764.7 2456.30   2
  -4   9  -6 3998.82 785.802   2
  -4   9  -5 16628.2 1597.69   2
  -4   9  -4 14093.5 1437.09   2
  -4   9  -3 572.432 345.927   2
  -4   9  -2 12998.6 1346.25   2
  -4   9  -1 3620.86 700.402   2
  -4   9   0 37811.2 2223.96   2
  -4   9   1 637.297 374.212   2
  -4   9   2 16747.8 1465.86   2
  -3  -9 -18 2581.61 806.803   6
  -3  -9 -17 3771.77 920.221   6
  -3  -9 -16 23141.3 2153.64   6
  -3  -9 -15-58.4953 364.269   6
  -3  -9 -14 44149.7 2779.80   6
  -3  -9 -13 1931.07 506.373   6
  -3  -9 -12 22009.7 1793.44   6
  -3  -9 -11 6678.31 969.053   6
  -3  -9 -10 2833.48 608.316   6
  -3  -9  -9 12678.3 1197.90   6
  -3  -9  -8 1021.84 358.739   6
  -3  -9  -7 41153.6 2007.53   6
  -3  -9  -3 2094.00 386.786   3
  -3  -9  -2 39900.1 1776.84   3
  -3  -8 -11 63037.0 2945.05   6
  -3  -8 -10 721.207 341.503   6
  -3  -8  -9 92043.6 3329.66   6
  -3  -8  -8 21875.1 1454.52   6
  -3  -8  -7 24164.5 1456.83   6
  -3  -8  -6 35634.6 1405.28   3
  -3  -8  -6 36681.0 1707.85   6
  -3  -8  -5-12.5682 177.294   6
  -3  -8  -5 226.023 153.252   3
  -3  -8  -4 24053.9 1219.52   3
  -3  -8  -4 25232.1 1235.92   6
  -3  -8  -3 27816.2 1376.57   3
  -3  -8  -3 31474.3 1321.55   6
  -3  -8  -2 21083.8 1004.66   6
  -3  -8  -2 21710.0 1241.75   3
  -3  -8  -1 547.573 219.675   3
  -3  -8  -1 1151.30 229.497   6
  -3  -8   0 785.072 271.988   3
  -3  -8   1 21106.6 1408.03   3
  -3  -7 -10 12731.4 924.483   3
  -3  -7  -9 14673.0 953.655   3
  -3  -7  -8 26730.7 1562.09   6
  -3  -7  -8 27813.7 1294.19   3
  -3  -7  -7 14197.8 893.057   3
  -3  -7  -7 14028.7 1043.97   6
  -3  -7  -6 1989.09 340.889   3
  -3  -7  -6 1909.45 377.561   6
  -3  -7  -5 35745.3 1496.19   6
  -3  -7  -5 35066.4 1454.14   3
  -3  -7  -4 5200.73 502.534   6
  -3  -7  -4 5285.88 554.391   3
  -3  -7  -3 42981.6 1697.70   3
  -3  -7  -3 42462.7 1426.98   6
  -3  -7  -3 41431.3 1306.05   4
  -3  -7  -2 5381.74 356.535   4
  -3  -7  -2 6104.79 627.836   3
  -3  -7  -2 6151.75 460.864   6
  -3  -7  -1 41189.8 1782.12   3
  -3  -7  -1 40656.5 1243.83   6
  -3  -7   0 397.423 191.840   3
  -3  -7   1 21117.3 1345.71   3
  -3  -7   2 25749.4 844.048   4
  -3  -7   2 26877.7 1593.87   3
  -3  -7   3 11218.8 1059.72   3
  -3  -7   3 10805.1 613.178   4
  -3  -7   4 46891.3 1571.41   4
  -3  -7   5 686.262 221.415   4
  -3  -7   6 56631.5 2078.16   4
  -3  -7   7 3158.32 502.547   4
  -3  -7   8 30208.9 1684.65   4
  -3  -7   9 16027.8 1284.68   4
  -3  -7  10 4078.48 704.643   4
  -3  -6  -9 11421.0 897.535   3
  -3  -6  -8 14978.8 992.836   3
  -3  -6  -7 29999.5 1383.47   3
  -3  -6  -6 22721.1 1171.71   3
  -3  -6  -5 80479.2 2289.82   6
  -3  -6  -5 77870.6 2360.49   3
  -3  -6  -4 2107.17 355.016   3
  -3  -6  -4 1854.74 290.768   6
  -3  -6  -4 1894.65 274.838   4
  -3  -6  -3 52443.5 1480.43   6
  -3  -6  -3 55078.6 1936.88   3
  -3  -6  -3 54428.0 1452.44   4
  -3  -6  -2 24115.0 811.074   6
  -3  -6  -2 22649.7 1212.43   3
  -3  -6  -2 21772.6 658.056   4
  -3  -6  -1 29730.2 1432.59   3
  -3  -6  -1 27181.5 806.331   6
  -3  -6   0 42288.2 1810.70   3
  -3  -6   1 9446.51 857.763   3
  -3  -6   2 52978.2 2201.96   3
  -3  -6   2 51848.7 1241.34   4
  -3  -6   3 1953.39 460.923   3
  -3  -6   3 1508.72 221.885   4
  -3  -6   4 44363.4 2161.63   3
  -3  -6   4 44714.9 1507.00   4
  -3  -6   5 19544.5 1054.59   4
  -3  -6   5 19884.9 1469.15   3
  -3  -6   6 11858.2 895.569   4
  -3  -6   7 31563.8 1614.05   4
  -3  -6   8 947.404 322.979   4
  -3  -6   9 40360.4 2090.06   4
  -3  -6  10 304.256 282.271   4
  -3  -6  11 39989.1 2308.00   4
  -3  -6  12 19958.6 1679.86   4
  -3  -6  13 5066.58 925.044   4
  -3  -6  14 22742.2 1969.67   4
  -3  -6  15 911.528 493.898   4
  -3  -5  -7 57734.1 2070.27   3
  -3  -5  -6 1825.91 364.513   3
  -3  -5  -5 75478.1 2327.15   3
  -3  -5  -4 116878. 2616.33   6
  -3  -5  -4 112257. 3010.75   3
  -3  -5  -4 121797. 2716.67   4
  -3  -5  -3 29752.1 942.436   6
  -3  -5  -3 30667.6 977.304   4
  -3  -5  -3 31032.2 1376.37   3
  -3  -5  -2 54012.8 1162.65   6
  -3  -5  -2 59091.4 1994.90   3
  -3  -5  -1 4213.50 531.778   3
  -3  -5   0 69582.0 2339.96   3
  -3  -5   1 1095.81 304.357   3
  -3  -5   2 21294.2 1293.04   3
  -3  -5   2 18370.6 630.015   4
  -3  -5   3 31320.5 1663.47   3
  -3  -5   3 33372.8 1103.58   4
  -3  -5   4 441.249 227.719   3
  -3  -5   4 365.837 149.312   4
  -3  -5   5 81639.3 2397.59   4
  -3  -5   5 82472.8 3062.93   3
  -3  -5   6 10251.9 1056.92   3
  -3  -5   6 11108.3 861.429   4
  -3  -5   7 55784.7 2208.77   4
  -3  -5   8 9627.39 932.498   4
  -3  -5   9 14118.8 1217.97   4
  -3  -5  10 39184.6 2167.33   4
  -3  -5  11 18498.8 1551.65   4
  -3  -5  12 59133.0 2973.00   4
  -3  -5  13 1904.59 589.699   4
  -3  -5  14 26754.3 2133.04   4
  -3  -5  15 14306.6 1617.93   4
  -3  -5  16 3031.06 817.715   4
  -3  -5  17 12338.8 1622.45   4
  -3  -5  18-192.703 337.765   4
  -3  -5  19 9398.32 1526.71   4
  -3  -4  -6 67222.4 2236.68   3
  -3  -4  -5 115911. 3083.51   3
  -3  -4  -4 102423. 2821.63   3
  -3  -4  -4 104495. 2482.11   4
  -3  -4  -3 20581.2 1102.45   3
  -3  -4  -3 21412.9 787.269   4
  -3  -4  -2 64623.7 2101.54   3
  -3  -4  -1 33557.1 1457.32   3
  -3  -4   0 2405.73 414.675   3
  -3  -4   1 156944. 3900.14   3
  -3  -4   2 11949.5 937.447   3
  -3  -4   2 12852.6 537.156   4
  -3  -4   3 111391. 3351.59   3
  -3  -4   3 116469. 2531.55   4
  -3  -4   4 13776.7 789.029   4
  -3  -4   4 13870.1 1086.25   3
  -3  -4   5 61009.1 2502.58   3
  -3  -4   5 66024.8 2091.67   4
  -3  -4   6 68270.3 2307.57   4
  -3  -4   6 64382.6 2680.10   3
  -3  -4   7 8195.86 957.508   3
  -3  -4   7 8410.16 813.710   4
  -3  -4   8 43047.7 2035.86   4
  -3  -4   9 4053.26 677.952   4
  -3  -4  10 68690.3 2938.99   4
  -3  -4  11 2267.57 575.621   4
  -3  -4  12 30993.0 2115.02   4
  -3  -4  13 9132.76 1197.92   4
  -3  -4  14 430.344 299.968   4
  -3  -4  15 30119.8 2356.41   4
  -3  -4  16-564.324 448.615   4
  -3  -4  17 8960.52 1390.95   4
  -3  -4  18 2581.66 828.124   4
  -3  -4  19 7244.00 1378.43   4
  -3  -3  -4 97681.3 2707.91   3
  -3  -3  -4 92180.4 2333.95   4
  -3  -3  -3 77224.9 2330.14   3
  -3  -3  -3 77622.5 1758.31   6
  -3  -3  -2 626.142 207.830   3
  -3  -3  -1 167231. 3863.36   3
  -3  -3   0 83974.4 2478.37   3
  -3  -3   1 102934. 2883.89   3
  -3  -3   2 105212. 2998.85   3
  -3  -3   2 105301. 2227.18   4
  -3  -3   3 36101.9 1664.86   3
  -3  -3   3 37425.5 1255.94   4
  -3  -3   4 44377.4 1933.82   3
  -3  -3   4 46783.1 1595.07   4
  -3  -3   5 564.932 222.334   4
  -3  -3   5 827.985 331.384   3
  -3  -3   6 115647. 3639.86   3
  -3  -3   6 118561. 3277.14   4
  -3  -3   7 2240.05 517.225   3
  -3  -3   7 2456.13 453.420   4
  -3  -3   8 35365.1 1840.48   4
  -3  -3   9 25063.6 1623.51   4
  -3  -3  10 963.377 389.520   4
  -3  -3  11 63092.1 2939.52   4
  -3  -3  12 2629.79 635.568   4
  -3  -3  13 21995.2 1851.51   4
  -3  -3  14-341.602 387.501   4
  -3  -3  15 29055.2 2319.06   4
  -3  -3  16 8782.16 1349.40   4
  -3  -3  17 1598.77 635.795   4
  -3  -3  18 17507.0 2013.81   4
  -3  -3  19-1365.84 640.996   4
  -3  -3  20 11348.4 1762.58   4
  -3  -2  -4 180.253 131.784   6
  -3  -2  -3 42790.5 1626.14   3
  -3  -2  -3 39922.2 1237.01   6
  -3  -2  -2 5171.27 547.148   3
  -3  -2  -2 5264.18 359.203   6
  -3  -2  -1 64108.8 1413.23   6
  -3  -2  -1 64490.2 2051.64   3
  -3  -2   0 29679.7 1325.86   3
  -3  -2   1 16105.1 971.441   3
  -3  -2   2 181569. 4207.25   3
  -3  -2   2 182305. 3588.11   4
  -3  -2   3 1324.09 261.005   4
  -3  -2   3 1038.54 326.958   3
  -3  -2   4 114711. 3293.60   3
  -3  -2   4 119385. 2962.54   4
  -3  -2   5 17549.4 1182.75   3
  -3  -2   5 16111.6 1005.10   4
  -3  -2   6 58211.9 2341.58   3
  -3  -2   6 60880.2 2224.33   4
  -3  -2   7 66403.0 2631.71   3
  -3  -2   7 67745.6 2509.72   4
  -3  -2   8 1257.96 351.281   4
  -3  -2   8 1610.33 470.013   3
  -3  -2   9 86975.1 3226.07   4
  -3  -2  10 3503.51 636.861   4
  -3  -2  11 51479.7 2653.44   4
  -3  -2  12 2992.15 674.227   4
  -3  -2  13 22298.3 1864.85   4
  -3  -2  14 5964.88 1005.43   4
  -3  -2  15 825.970 466.616   4
  -3  -2  16 24166.3 2210.47   4
  -3  -2  17 1909.85 750.327   4
  -3  -2  18 7825.89 1355.95   4
  -3  -2  19 15705.5 1977.82   4
  -3  -2  20 5635.65 1259.71   4
  -3  -1  -4 41288.4 1387.07   2
  -3  -1  -3 23718.7 945.248   2
  -3  -1  -3 20439.2 951.377   6
  -3  -1  -2 21540.9 848.796   2
  -3  -1  -2 22732.4 1139.46   3
  -3  -1  -2 21657.1 907.274   6
  -3  -1  -1 239.405 111.857   2
  -3  -1  -1 517.631 151.130   6
  -3  -1  -1 516.960 224.729   3
  -3  -1   0 111438. 2316.15   2
  -3  -1   0 108459. 2820.39   3
  -3  -1   0 109920. 2432.30   6
  -3  -1   1 24468.6 1171.43   3
  -3  -1   2 99329.6 2731.75   3
  -3  -1   3 87988.6 2384.22   4
  -3  -1   3 84602.0 2553.80   3
  -3  -1   4 42324.2 1638.82   4
  -3  -1   4 42224.2 1743.61   3
  -3  -1   5 184072. 4344.80   4
  -3  -1   5 182081. 4442.79   3
  -3  -1   6 3849.17 560.186   4
  -3  -1   6 4621.57 608.533   3
  -3  -1   7 116319. 3537.99   4
  -3  -1   7 115353. 3524.81   3
  -3  -1   8 1330.64 388.315   4
  -3  -1   8 1323.96 397.831   3
  -3  -1   9 52947.2 2482.25   4
  -3  -1  10 18072.3 1493.01   4
  -3  -1  11 696.861 342.676   4
  -3  -1  12 32429.2 2197.79   4
  -3  -1  13 1029.85 426.782   4
  -3  -1  14 15009.4 1611.09   4
  -3  -1  15 7504.06 1180.16   4
  -3  -1  16 13393.5 1665.12   4
  -3  -1  17 19825.9 2094.39   4
  -3  -1  18 5394.69 1188.64   4
  -3  -1  19 19753.6 2273.47   4
  -3  -1  20-107.710 433.341   4
  -3   0  -3 381.827 102.213   2
  -3   0  -2 37052.8 913.359   2
  -3   0  -1 16697.6 942.326   3
  -3   0   0 86450.9 2406.00   3
  -3   0   1 140469. 3316.34   3
  -3   0   2 11204.5 767.347   3
  -3   0   3 153036. 3628.05   3
  -3   0   4 2449.98 417.260   4
  -3   0   4 1822.53 342.211   3
  -3   0   5 89435.5 2711.54   3
  -3   0   5 89564.3 2815.00   4
  -3   0   6 22730.7 1302.99   3
  -3   0   6 22562.2 1380.97   4
  -3   0   7 21382.3 1309.46   3
  -3   0   7 20613.5 1385.30   4
  -3   0   8 68474.9 2599.92   3
  -3   0   8 72743.0 2882.18   4
  -3   0   9 2320.63 512.389   4
  -3   0  10 84552.5 3436.12   4
  -3   0  11 10151.8 1195.01   4
  -3   0  12 18293.1 1665.17   4
  -3   0  13 32592.2 2317.31   4
  -3   0  14 10466.5 1362.71   4
  -3   0  15 29488.2 2410.59   4
  -3   0  16 1416.61 614.376   4
  -3   0  17 21646.7 2200.68   4
  -3   0  18 3829.19 1023.53   4
  -3   0  19 5194.50 1157.08   4
  -3   1   0 364.222 194.298   3
  -3   1   1 148885. 3404.23   3
  -3   1   2 40189.3 1490.93   3
  -3   1   3 46378.4 1652.15   3
  -3   1   4 120381. 3063.34   3
  -3   1   5 17563.4 1202.11   4
  -3   1   5 18033.4 1045.55   3
  -3   1   6 82810.3 2585.37   3
  -3   1   6 83169.2 2933.40   4
  -3   1   7 8789.96 789.167   3
  -3   1   7 8791.79 935.681   4
  -3   1   8 71520.8 2557.29   3
  -3   1   8 69209.3 2882.97   4
  -3   1   9 20974.7 1597.68   4
  -3   1  10 48612.0 2571.33   4
  -3   1  11 58429.0 2962.61   4
  -3   1  12 9522.99 1217.11   4
  -3   1  13 29836.0 2265.87   4
  -3   1  14 8623.37 1274.76   4
  -3   1  15 19044.8 1941.71   4
  -3   1  16 18049.7 1950.85   4
  -3   1  17 9091.64 1428.28   4
  -3   1  18 18646.3 2140.32   4
  -3   1  19 2823.97 914.178   4
  -3   2  -3 65456.7 1588.47   2
  -3   2  -2 181498. 3252.75   2
  -3   2  -1 60535.0 1332.44   2
  -3   2   0 225203. 4634.31   3
  -3   2   1 47189.5 1606.90   3
  -3   2   2 124641. 2958.27   3
  -3   2   3 2758.96 368.199   3
  -3   2   4 87886.7 2408.84   3
  -3   2   5 12787.8 828.087   3
  -3   2   6 14636.6 935.988   3
  -3   2   6 13358.5 1153.10   4
  -3   2   7 65650.7 2235.30   3
  -3   2   7 62832.3 2707.25   4
  -3   2   8 17677.2 1137.96   3
  -3   2   8 18709.3 1469.51   4
  -3   2   9 72289.2 3140.01   4
  -3   2  10 1143.26 428.664   4
  -3   2  11 64373.9 3189.36   4
  -3   2  12 8220.63 1173.84   4
  -3   2  13 14131.9 1564.11   4
  -3   2  14 40358.6 2772.02   4
  -3   2  15 1833.66 624.621   4
  -3   2  16 11561.3 1583.14   4
  -3   2  17 344.013 422.932   4
  -3   2  18 3229.43 969.913   4
  -3   2  19 9655.38 1623.57   4
  -3   3  -5 128091. 3100.43   2
  -3   3  -4 58072.9 1777.13   2
  -3   3  -3 30992.1 1174.19   2
  -3   3  -2 203646. 3985.04   2
  -3   3  -1 2283.88 291.745   2
  -3   3   0 141735. 2951.74   2
  -3   3   1 13075.8 791.133   3
  -3   3   2 46425.7 1537.23   3
  -3   3   3 54052.6 1679.14   3
  -3   3   4 44984.3 1521.93   3
  -3   3   5 47522.0 1614.34   3
  -3   3   6 4245.85 469.470   3
  -3   3   7 34379.6 2029.69   4
  -3   3   7 33920.1 1455.00   3
  -3   3   8 11858.3 1231.87   4
  -3   3   9 43840.8 2462.68   4
  -3   3  10 44818.2 2593.16   4
  -3   3  11 11016.3 1311.70   4
  -3   3  12 30510.6 2278.01   4
  -3   3  13 3571.46 816.215   4
  -3   3  14 16596.0 1804.06   4
  -3   3  15 13547.6 1704.08   4
  -3   3  16 9721.38 1482.60   4
  -3   3  17 13895.1 1854.31   4
  -3   3  18 1738.27 805.220   4
  -3   3  19 17476.8 2196.47   4
  -3   4  -7 45936.3 1935.71   2
  -3   4  -6 118767. 3290.61   2
  -3   4  -5 10407.6 809.624   2
  -3   4  -4 56520.0 1952.22   2
  -3   4  -3 4086.61 478.352   2
  -3   4  -2 33290.0 1390.65   2
  -3   4  -1 99329.5 2657.42   2
  -3   4   0 67668.0 2055.60   2
  -3   4   1 67880.3 1993.99   3
  -3   4   1 69986.3 2089.59   2
  -3   4   2 12520.8 721.742   3
  -3   4   3 59786.8 1696.16   3
  -3   4   4 542.379 170.709   3
  -3   4   5 54959.5 1648.44   3
  -3   4   6 38877.4 1385.02   3
  -3   4   9 256.398 303.112   4
  -3   4  10 53963.1 2949.82   4
  -3   4  11 2485.23 636.063   4
  -3   4  12 23650.8 2055.61   4
  -3   4  13 7531.28 1196.78   4
  -3   4  14 14216.6 1726.28   4
  -3   4  15 14383.6 1764.26   4
  -3   4  16 2403.43 840.768   4
  -3   4  17 19679.6 2202.31   4
  -3   4  18 259.605 413.592   4
  -3   5 -11 25609.2 1781.51   2
  -3   5 -10 40663.6 2190.77   2
  -3   5  -9 2414.83 520.962   2
  -3   5  -8 14425.7 1180.69   2
  -3   5  -7-2.33980 189.826   2
  -3   5  -6 37504.1 1819.83   2
  -3   5  -5 25911.8 1451.29   2
  -3   5  -5 24689.3 880.780   1
  -3   5  -4 46417.8 1964.06   2
  -3   5  -4 48230.8 1436.55   1
  -3   5  -3 57294.3 2156.69   2
  -3   5  -3 56351.7 1708.51   1
  -3   5  -2 21985.0 1273.09   2
  -3   5  -2 24297.5 1118.70   1
  -3   5  -1 67817.0 2136.84   1
  -3   5  -1 67511.0 2322.19   2
  -3   5   0 125.617 158.547   1
  -3   5   0 336.625 218.713   2
  -3   5   1 62003.1 2218.50   1
  -3   5   1 61835.8 1874.37   3
  -3   5   1 63085.9 2194.01   2
  -3   5   2 16572.1 805.198   3
  -3   5   2 15274.5 1081.09   1
  -3   5   2 15770.5 1046.01   2
  -3   5   3 51360.3 1451.47   3
  -3   5   4 53681.7 1441.14   3
  -3   5   5 7266.36 464.330   3
  -3   5  13 31181.7 2512.57   4
  -3   5  14 10.0088 432.657   4
  -3   5  15 25367.9 2405.22   4
  -3   5  16 9296.63 1553.36   4
  -3   5  17 10001.1 1618.91   4
  -3   5  18 17787.6 2186.73   4
  -3   6 -19 12513.9 1752.48   2
  -3   6 -18 5279.61 1125.70   2
  -3   6 -17 34179.3 2655.90   2
  -3   6 -16 360.835 384.965   2
  -3   6 -15 18124.7 1820.61   2
  -3   6 -14 5604.33 1001.73   2
  -3   6 -13 8931.78 1191.31   2
  -3   6 -12 11258.6 1287.87   2
  -3   6 -11 169.105 299.448   2
  -3   6 -10 35520.9 2141.49   2
  -3   6  -9 11664.6 1198.31   2
  -3   6  -8 19235.3 1477.85   2
  -3   6  -7 41696.5 2158.75   2
  -3   6  -6 19318.5 1391.94   2
  -3   6  -6 18361.7 791.482   1
  -3   6  -5 42172.4 2058.12   2
  -3   6  -5 39069.1 1332.88   1
  -3   6  -4 132.732 208.528   2
  -3   6  -4 890.344 220.326   1
  -3   6  -3 59182.4 2431.32   2
  -3   6  -3 57327.0 1902.41   1
  -3   6  -2 6260.65 614.759   1
  -3   6  -2 7407.33 828.206   2
  -3   6  -1 62447.1 2177.05   1
  -3   6  -1 58590.6 2389.23   2
  -3   6   0 17934.3 1146.56   1
  -3   6   0 15643.0 1160.87   2
  -3   6   1 40184.4 1830.59   1
  -3   6   1 36431.2 1358.09   3
  -3   6   1 36250.7 1787.33   2
  -3   6   2 25230.3 1501.48   1
  -3   6   2 26923.9 1005.63   3
  -3   6   2 28489.6 1567.94   2
  -3   6   3 109.226 68.7335   3
  -3   6   3-100.697 242.119   1
  -3   6   4 45644.5 1065.13   3
  -3   6   4 53019.1 2368.70   1
  -3   7 -18 180.706 441.753   2
  -3   7 -17 15409.1 1881.55   2
  -3   7 -16 5736.93 1158.76   2
  -3   7 -15 2058.07 666.046   2
  -3   7 -14 9126.45 1298.36   2
  -3   7 -13 401.771 299.315   2
  -3   7 -12 19506.0 1817.89   2
  -3   7 -11 10348.4 1276.47   2
  -3   7 -10 36162.6 2327.80   2
  -3   7  -9 55335.6 2826.45   2
  -3   7  -8 3064.15 652.412   2
  -3   7  -7 34980.6 2110.02   2
  -3   7  -6 7950.64 965.453   2
  -3   7  -5 10318.9 1084.12   2
  -3   7  -5 8539.49 657.509   1
  -3   7  -4 5501.47 787.470   2
  -3   7  -4 3610.87 467.253   1
  -3   7  -3 37897.8 2071.33   2
  -3   7  -3 33898.5 1542.45   1
  -3   7  -2 30869.7 1525.33   1
  -3   7  -2 34132.3 1939.53   2
  -3   7  -1 18631.4 1213.06   1
  -3   7  -1 16986.4 1340.46   2
  -3   7   0 48138.3 2299.45   2
  -3   7   0 48383.4 2099.66   1
  -3   7   1 1421.24 257.972   3
  -3   7   1 1537.85 402.886   1
  -3   7   1 1401.01 412.139   2
  -3   7   2 59093.1 2520.82   1
  -3   7   2 59144.8 2546.67   2
  -3   7   3 16857.2 1344.59   1
  -3   7   3 18629.3 1384.33   2
  -3   7   4 25710.1 1718.72   1
  -3   7   5 20616.7 1588.69   1
  -3   8 -17 566.441 591.944   2
  -3   8 -16 13896.4 1814.86   2
  -3   8 -15-231.660 435.441   2
  -3   8 -14 15452.5 1803.36   2
  -3   8 -13 17555.1 1833.15   2
  -3   8 -12 3065.91 769.662   2
  -3   8 -11 19254.9 1833.58   2
  -3   8 -10 556.867 380.305   2
  -3   8  -9 20446.3 1811.41   2
  -3   8  -8 5491.08 918.503   2
  -3   8  -7 40515.1 2450.26   2
  -3   8  -6 16954.0 1543.41   2
  -3   8  -5 3956.78 778.515   2
  -3   8  -4 18383.1 1143.43   1
  -3   8  -4 21634.2 1705.49   2
  -3   8  -3-38.4094 169.083   1
  -3   8  -3 317.892 338.867   2
  -3   8  -2 73933.6 3169.55   2
  -3   8  -2 68312.5 2555.37   1
  -3   8  -1 17867.1 1484.60   2
  -3   8  -1 17605.1 1278.39   1
  -3   8   0 68870.1 2738.27   1
  -3   8   0 72931.9 3087.15   2
  -3   8   1 13363.7 1267.67   2
  -3   8   1 13940.2 1204.44   1
  -3   8   2 7496.50 935.953   2
  -3   8   2 6454.37 847.266   1
  -3   8   3 17705.3 1446.77   1
  -3   8   3 16446.1 1421.50   2
  -3   8   4 5063.19 799.953   1
  -3   8   5 17560.8 1536.26   1
  -3   9 -16 11574.1 1706.34   2
  -3   9 -15 5788.89 1176.64   2
  -3   9 -14 1057.18 599.963   2
  -3   9 -13 11727.0 1582.97   2
  -3   9 -12 6836.93 1216.90   2
  -3   9 -11 15419.9 1730.62   2
  -3   9 -10 2056.17 740.466   2
  -3   9  -9 10543.9 1388.54   2
  -3   9  -8 26153.5 2118.61   2
  -3   9  -7 12386.3 1432.33   2
  -3   9  -6 61183.5 3233.35   2
  -3   9  -5 12585.1 1424.89   2
  -3   9  -4 36380.1 2414.21   2
  -3   9  -3 19060.8 1695.76   2
  -3   9  -2 6707.17 1015.20   2
  -3   9  -2 7783.20 870.205   1
  -3   9  -1 17674.4 1359.48   1
  -3   9  -1 18508.4 1632.40   2
  -3   9   0 263.794 261.144   1
  -3   9   0 918.089 428.835   2
  -3   9   1 12619.4 1220.44   1
  -3   9   1 10949.4 1235.17   2
  -3   9   2 6266.47 926.258   2
  -3   9   2 4970.46 781.818   1
  -3   9   3 9352.25 1113.69   1
  -3   9   3 10522.7 1204.88   2
  -3   9   4 17549.3 1574.33   1
  -3   9   5 6821.11 993.193   1
  -3   9   6 20307.5 1791.76   1
  -3  10 -13 7495.63 1353.21   2
  -3  10 -12 8952.32 1466.14   2
  -3  10 -11 6294.00 1195.61   2
  -3  10 -10 24721.8 2293.10   2
  -3  10  -9 1206.64 632.183   2
  -3  10  -8 27438.3 2349.30   2
  -3  10  -7 10342.3 1412.93   2
  -3  10  -6 21237.8 2008.58   2
  -3  10  -5 17951.6 1854.04   2
  -3  10  -4 1457.36 527.033   2
  -3  10  -3 20964.1 1909.08   2
  -3  10  -2 6247.92 1028.49   2
  -3  10  -1 8488.65 999.719   1
  -3  10  -1 7486.57 1117.12   2
  -3  10   0 8975.21 1069.89   1
  -3  10   0 7925.43 1137.96   2
  -3  10   1 11516.3 1356.05   2
  -3  10   1 12545.4 1285.03   1
  -3  10   2 16946.3 1531.82   1
  -3  10   2 15511.1 1553.80   2
  -3  10   3-3.09141 364.168   2
  -3  10   3 509.754 381.437   1
  -3  10   4 26321.4 2045.65   1
  -3  10   5 1117.30 473.488   1
  -3  10   6 12424.5 1457.05   1
  -3  11  -5 14692.0 1733.09   2
  -3  11  -4 4669.11 987.986   2
  -3  11  -3 18014.1 1864.36   2
  -3  11  -2 18177.3 1866.38   2
  -3  11  -1 1676.29 636.798   2
  -3  11   0 15553.2 1660.55   2
  -3  11   1 614.341 412.472   2
  -3  11   1 332.179 413.290   1
  -3  11   2 14602.5 1505.11   1
  -3  11   2 16921.7 1739.34   2
  -3  11   3 11395.9 1413.18   2
  -3  11   3 9575.88 1258.29   1
  -3  11   4 8494.12 1208.69   1
  -3  11   5 13388.4 1567.71   1
  -3  12   4 816.191 409.394   1
  -2 -10 -15 19021.1 2015.82   6
  -2 -10 -14 3730.23 914.259   6
  -2 -10 -13 18954.1 1882.16   6
  -2 -10 -12 555.553 550.746   6
  -2 -10 -11 25289.4 2032.76   6
  -2 -10 -10 5801.66 950.650   6
  -2 -10  -9 2785.76 631.579   6
  -2  -9 -19 7543.06 1408.88   6
  -2  -9 -18 6934.43 1341.65   6
  -2  -9 -17 9803.28 1505.10   6
  -2  -9 -16 37.2485 365.648   6
  -2  -9 -15 15944.0 1784.31   6
  -2  -9 -14 3456.76 812.046   6
  -2  -9 -13 13086.1 1523.46   6
  -2  -9 -12 12965.9 1473.87   6
  -2  -9 -11 7230.43 1059.49   6
  -2  -9 -10 40082.7 2410.62   6
  -2  -9  -9 19.9982 261.922   6
  -2  -9  -8 21634.8 1621.67   6
  -2  -9  -7 6607.04 855.528   6
  -2  -9  -6 23793.1 1571.64   6
  -2  -9  -5 38300.3 1949.99   6
  -2  -9  -4 684.249 363.444   6
  -2  -9  -3 118276. 3575.96   6
  -2  -9  -2 94.3999 230.714   6
  -2  -9  -1 76812.8 2640.61   6
  -2  -9   0 671.335 257.475   6
  -2  -9   1 16466.6 1154.87   6
  -2  -8 -13 390.101 404.456   6
  -2  -8 -12 14951.8 1533.68   6
  -2  -8 -11 500.550 384.185   6
  -2  -8 -10 24034.6 1761.19   6
  -2  -8  -9 23243.2 1681.80   6
  -2  -8  -8 10441.3 1076.77   6
  -2  -8  -7 154292. 4483.00   6
  -2  -8  -6 207.230 223.406   6
  -2  -8  -5 144646. 4015.42   6
  -2  -8  -4 9016.61 837.033   6
  -2  -8  -3 80624.3 2641.37   6
  -2  -8  -2 916.586 306.114   6
  -2  -8  -1 25639.5 1345.61   6
  -2  -8   0 12966.9 920.613   6
  -2  -8   1 581.754 236.860   6
  -2  -8   2 20120.9 1094.71   4
  -2  -8   3 24343.7 1266.31   4
  -2  -8   4 15887.5 1060.38   4
  -2  -8   5 24280.8 1383.92   4
  -2  -8   6 3685.55 594.301   4
  -2  -8   7 37561.3 1935.98   4
  -2  -7  -9 124900. 4082.70   6
  -2  -7  -8 284.529 261.719   6
  -2  -7  -8 65.3439 96.3389   3
  -2  -7  -7 91931.0 3108.51   6
  -2  -7  -7 87716.7 2043.80   3
  -2  -7  -6 20657.9 1321.68   6
  -2  -7  -6 19384.8 799.061   3
  -2  -7  -5 18565.5 805.679   3
  -2  -7  -5 18141.2 1172.08   6
  -2  -7  -4 33370.2 1196.47   3
  -2  -7  -4 35453.3 1587.22   6
  -2  -7  -3 197.527 143.814   6
  -2  -7  -3 830.859 201.747   3
  -2  -7  -2 35787.9 1491.87   6
  -2  -7  -2 33305.7 1347.57   3
  -2  -7  -1 7737.76 642.587   6
  -2  -7  -1 6525.75 505.971   4
  -2  -7  -1 6574.67 610.360   3
  -2  -7   0 34956.3 1222.88   4
  -2  -7   0 35704.9 1448.58   6
  -2  -7   0 37909.9 1612.79   3
  -2  -7   1 32615.8 1414.99   6
  -2  -7   2 11180.6 743.601   4
  -2  -7   3 58495.3 1953.16   4
  -2  -7   4 198.007 179.697   4
  -2  -7   5 44169.1 1850.23   4
  -2  -7   6 2970.87 500.282   4
  -2  -7   7 22263.1 1437.08   4
  -2  -7   8 11795.8 1093.67   4
  -2  -7   9 22818.4 1615.37   4
  -2  -7  10 43154.1 2359.44   4
  -2  -7  11-142.874 220.129   4
  -2  -7  12 18276.4 1649.10   4
  -2  -7  13 4129.43 822.546   4
  -2  -7  14 2467.24 691.615   4
  -2  -6  -9 12188.1 804.339   3
  -2  -6  -8 25245.0 1118.11   3
  -2  -6  -7 14660.9 781.549   3
  -2  -6  -6 46683.2 1458.81   3
  -2  -6  -6 47863.5 1946.02   6
  -2  -6  -5 2241.56 389.640   6
  -2  -6  -5 2186.67 280.023   3
  -2  -6  -4 67481.0 1850.37   3
  -2  -6  -4 69099.3 2177.89   6
  -2  -6  -3 40783.0 1516.95   6
  -2  -6  -3 40217.4 1379.19   3
  -2  -6  -2 40213.2 1435.13   6
  -2  -6  -2 40540.7 1459.91   3
  -2  -6  -2 42223.1 1335.93   4
  -2  -6  -1 56436.9 1510.14   4
  -2  -6  -1 56062.7 1851.97   3
  -2  -6  -1 55116.9 1696.11   6
  -2  -6   0 11204.9 692.787   6
  -2  -6   0 12642.2 854.190   3
  -2  -6   0 11899.2 587.770   4
  -2  -6   1 65223.4 2243.55   3
  -2  -6   1 67912.0 1979.79   6
  -2  -6   1 68168.6 1790.34   4
  -2  -6   2 69.5648 146.483   3
  -2  -6   2 95.1970 92.6857   4
  -2  -6   3 64196.1 1950.22   4
  -2  -6   4 46827.8 1728.16   4
  -2  -6   5 25554.3 1326.98   4
  -2  -6   6 54273.6 2137.71   4
  -2  -6   7 8509.95 869.547   4
  -2  -6   8 17465.3 1305.87   4
  -2  -6   9 968.356 359.498   4
  -2  -6  10 9959.04 1093.13   4
  -2  -6  11 12180.6 1260.35   4
  -2  -6  12 8739.62 1123.01   4
  -2  -6  13 17323.1 1673.18   4
  -2  -6  14 456.510 374.381   4
  -2  -6  15 30784.5 2429.52   4
  -2  -6  16 1561.98 615.125   4
  -2  -6  17 16422.3 1918.66   4
  -2  -6  18 16478.3 1982.16   4
  -2  -5  -7 3576.96 425.687   3
  -2  -5  -6 58520.7 1773.33   3
  -2  -5  -5 79419.6 2090.86   3
  -2  -5  -4 69665.8 1907.80   3
  -2  -5  -4 72304.4 2079.25   6
  -2  -5  -3 57595.5 1633.62   4
  -2  -5  -3 55813.5 1670.67   6
  -2  -5  -3 54030.4 1638.91   3
  -2  -5  -2 171.171 108.154   6
  -2  -5  -2 495.554 193.778   3
  -2  -5  -2 283.719 108.537   4
  -2  -5  -1 110257. 2727.96   3
  -2  -5  -1 109152. 2174.52   4
  -2  -5  -1 106935. 2365.92   6
  -2  -5   0 45258.0 1297.79   6
  -2  -5   0 45728.8 1649.05   3
  -2  -5   0 43731.3 1100.59   4
  -2  -5   1 69183.0 2222.63   3
  -2  -5   1 71335.3 1671.48   4
  -2  -5   2 102162. 3002.93   3
  -2  -5   2 112255. 2445.70   4
  -2  -5   3 98144.6 2988.01   3
  -2  -5   3 99249.6 2444.61   4
  -2  -5   4 49194.3 1710.87   4
  -2  -5   5 46.9753 120.168   4
  -2  -5   6 17738.3 1135.88   4
  -2  -5   7 3075.39 511.163   4
  -2  -5   8 359.584 226.778   4
  -2  -5   9 27338.5 1731.77   4
  -2  -5  10 1676.75 489.630   4
  -2  -5  11 59154.2 2859.32   4
  -2  -5  12 1459.43 492.049   4
  -2  -5  13 42719.3 2628.65   4
  -2  -5  14 27154.8 2182.97   4
  -2  -5  15 12276.6 1520.58   4
  -2  -5  16 41284.4 2911.32   4
  -2  -5  17 982.376 574.607   4
  -2  -5  18 12261.6 1677.24   4
  -2  -5  19 717.474 621.622   4
  -2  -5  20 10269.3 1652.87   4
  -2  -4  -5 138655. 3128.93   3
  -2  -4  -4 2355.74 319.944   3
  -2  -4  -3 101060. 2453.65   3
  -2  -4  -3 99565.5 2288.10   6
  -2  -4  -3 107766. 2345.82   4
  -2  -4  -2 74576.3 1688.41   6
  -2  -4  -2 72381.6 1982.42   3
  -2  -4  -2 76038.0 1655.44   4
  -2  -4  -1 72338.7 1992.03   3
  -2  -4  -1 68264.1 1359.17   4
  -2  -4  -1 69358.6 1493.02   6
  -2  -4   0 89850.0 1815.01   6
  -2  -4   0 90731.6 2412.26   3
  -2  -4   1 728.595 232.495   3
  -2  -4   1 840.956 125.456   4
  -2  -4   2 104499. 2872.78   3
  -2  -4   2 105258. 2226.73   4
  -2  -4   3 951.370 284.521   3
  -2  -4   3 1233.57 222.529   4
  -2  -4   4 45435.5 1912.66   3
  -2  -4   4 45804.6 1580.17   4
  -2  -4   5 40919.7 1892.14   3
  -2  -4   5 41609.0 1634.48   4
  -2  -4   6 6152.59 647.086   4
  -2  -4   7 76935.3 2672.74   4
  -2  -4   8 1278.18 376.443   4
  -2  -4   9 51532.1 2383.03   4
  -2  -4  10 27579.0 1796.86   4
  -2  -4  11 47131.8 2514.77   4
  -2  -4  12 34580.1 2236.40   4
  -2  -4  13 4726.26 881.362   4
  -2  -4  14 28228.2 2228.69   4
  -2  -4  15 1353.11 516.333   4
  -2  -4  16 12586.4 1596.95   4
  -2  -4  17 3835.35 953.133   4
  -2  -4  18 7115.98 1298.74   4
  -2  -4  19 15096.0 1927.78   4
  -2  -4  20 5964.49 1233.32   4
  -2  -3  -4 75652.8 2044.38   4
  -2  -3  -3 55159.8 1652.80   3
  -2  -3  -3 57494.7 1516.92   4
  -2  -3  -2 76584.6 1598.79   4
  -2  -3  -2 74900.4 1984.48   3
  -2  -3  -1 7494.29 549.541   3
  -2  -3   0 75829.1 2070.69   3
  -2  -3   1 51674.0 1085.00   4
  -2  -3   1 54202.6 1730.72   3
  -2  -3   2 67032.1 2085.02   3
  -2  -3   2 67593.8 1566.70   4
  -2  -3   3 134923. 2876.49   4
  -2  -3   3 136002. 3404.29   3
  -2  -3   4 59358.8 1820.09   4
  -2  -3   4 60249.3 2139.45   3
  -2  -3   5 119430. 3409.18   3
  -2  -3   5 121371. 3101.88   4
  -2  -3   6 3831.91 526.791   4
  -2  -3   7 100532. 3123.55   4
  -2  -3   8 53300.5 2300.50   4
  -2  -3   9 173.084 210.217   4
  -2  -3  10 81527.2 3233.88   4
  -2  -3  11 4391.61 777.301   4
  -2  -3  12 33133.1 2177.61   4
  -2  -3  13 1560.75 553.943   4
  -2  -3  14 15542.8 1637.08   4
  -2  -3  15 13905.5 1612.13   4
  -2  -3  16 7818.29 1283.26   4
  -2  -3  17 32785.8 2670.20   4
  -2  -3  18 693.458 494.065   4
  -2  -3  19 22984.7 2379.85   4
  -2  -3  20 2064.69 794.677   4
  -2  -2  -4 122031. 2871.36   4
  -2  -2  -3 9390.07 552.490   4
  -2  -2  -2 176487. 3764.65   2
  -2  -2  -2 183020. 3686.90   3
  -2  -2  -1 50953.9 1568.97   2
  -2  -2  -1 52172.3 1548.72   3
  -2  -2   0 1982.81 284.276   2
  -2  -2   0 2104.80 293.545   3
  -2  -2   1 133464. 3048.82   3
  -2  -2   1 136282. 2416.19   4
  -2  -2   2 2540.20 261.220   4
  -2  -2   2 2600.17 357.400   3
  -2  -2   3 146443. 3455.24   3
  -2  -2   3 144824. 3067.54   4
  -2  -2   4 40176.6 1629.49   3
  -2  -2   4 41001.8 1471.87   4
  -2  -2   5 91627.2 2757.34   3
  -2  -2   5 88271.0 2562.58   4
  -2  -2   6 70791.2 2488.80   3
  -2  -2   6 72141.9 2414.29   4
  -2  -2   7 923.143 311.111   4
  -2  -2   8 111127. 3519.81   4
  -2  -2   9 21940.1 1516.45   4
  -2  -2  10 18930.0 1495.27   4
  -2  -2  11 25605.2 1828.34   4
  -2  -2  12 16678.8 1527.92   4
  -2  -2  13 40500.0 2530.06   4
  -2  -2  14 10564.2 1344.47   4
  -2  -2  15 42247.3 2818.58   4
  -2  -2  16 269.560 344.512   4
  -2  -2  17 16454.2 1875.89   4
  -2  -2  18 2844.14 827.653   4
  -2  -2  19 2403.93 824.306   4
  -2  -2  20 7568.48 1452.98   4
  -2  -1  -3 85248.6 1984.28   2
  -2  -1  -3 76232.8 1948.40   6
  -2  -1  -2 8883.63 469.170   6
  -2  -1  -2 9258.64 516.221   2
  -2  -1  -1 118606. 2638.35   3
  -2  -1  -1 114510. 2349.41   2
  -2  -1  -1 117375. 2208.42   6
  -2  -1   0 99122.6 1898.16   6
  -2  -1   0 94803.2 2277.67   3
  -2  -1   0 94715.3 2006.45   2
  -2  -1   1 148457. 3165.79   3
  -2  -1   2 42453.6 1454.53   3
  -2  -1   2 43046.8 1277.06   4
  -2  -1   3 27752.6 1091.17   4
  -2  -1   3 26329.9 1159.87   3
  -2  -1   4 120327. 2961.72   4
  -2  -1   4 120931. 3048.57   3
  -2  -1   5 2434.85 397.265   4
  -2  -1   5 2687.71 414.262   3
  -2  -1   6 49627.5 1954.12   3
  -2  -1   6 52694.1 2021.39   4
  -2  -1   7 3932.68 575.977   4
  -2  -1   8 57728.8 2412.76   4
  -2  -1   9 67616.0 2787.56   4
  -2  -1  10 14957.7 1320.05   4
  -2  -1  11 67963.9 3061.01   4
  -2  -1  12 661.089 364.396   4
  -2  -1  13 29958.5 2183.95   4
  -2  -1  14 9063.96 1229.63   4
  -2  -1  15 14424.8 1646.74   4
  -2  -1  16 19873.9 1985.78   4
  -2  -1  17 3392.87 880.470   4
  -2  -1  18 18917.7 2095.59   4
  -2  -1  19 816.632 606.031   4
  -2  -1  20 16158.5 2057.51   4
  -2   0  -3 35645.1 1305.37   6
  -2   0  -2 74062.4 1889.18   6
  -2   0  -1 127857. 2654.16   6
  -2   0   0 93645.9 2186.19   3
  -2   0   0 91817.4 2101.28   6
  -2   0   1 11640.7 646.039   3
  -2   0   2 106748. 2481.25   3
  -2   0   2 106004. 2502.05   4
  -2   0   3 7397.08 590.611   4
  -2   0   3 7183.05 554.267   3
  -2   0   4 34114.0 1335.07   3
  -2   0   4 33950.1 1415.39   4
  -2   0   5 34007.7 1531.78   4
  -2   0   5 36630.7 1471.05   3
  -2   0   6 14223.8 938.445   3
  -2   0   6 14281.5 1031.55   4
  -2   0   7 54438.1 2240.08   4
  -2   0   8 775.353 325.292   4
  -2   0   9 109589. 3713.76   4
  -2   0  10 5880.48 838.418   4
  -2   0  11 46114.8 2512.21   4
  -2   0  12 32946.2 2184.87   4
  -2   0  13 8967.34 1197.38   4
  -2   0  14 32910.4 2380.97   4
  -2   0  15 250.833 304.247   4
  -2   0  16 47340.7 3099.23   4
  -2   0  17 3284.69 842.928   4
  -2   0  18 16632.4 1985.44   4
  -2   0  19 20037.5 2241.32   4
  -2   0  20 4309.96 1081.76   4
  -2   1  -1 112620. 2671.08   6
  -2   1   0 239667. 4509.53   3
  -2   1   0 250682. 4747.58   6
  -2   1   1 16041.5 729.792   3
  -2   1   2 11765.8 631.957   3
  -2   1   3 87596.6 2145.38   3
  -2   1   3 83988.3 2420.15   4
  -2   1   4 10132.8 789.883   4
  -2   1   4 11839.4 707.492   3
  -2   1   5 37060.4 1653.79   4
  -2   1   5 36592.3 1397.64   3
  -2   1   6 19426.7 1251.68   4
  -2   1   6 18952.4 1036.86   3
  -2   1   7 61982.5 2483.74   4
  -2   1   8 61481.7 2582.56   4
  -2   1   9 54901.1 2538.71   4
  -2   1  10 53848.5 2632.71   4
  -2   1  11 31932.9 2082.66   4
  -2   1  12 67310.1 3231.47   4
  -2   1  13 914.159 429.595   4
  -2   1  14 27471.2 2202.80   4
  -2   1  15 38479.0 2712.06   4
  -2   1  16 15824.3 1794.02   4
  -2   1  17 22874.9 2236.88   4
  -2   1  18 1249.90 553.481   4
  -2   1  19 19841.9 2239.14   4
  -2   1  20 2084.19 811.080   4
  -2   2  -3 8866.37 533.144   2
  -2   2  -2 3362.27 299.654   2
  -2   2  -1 272516. 4686.93   2
  -2   2   0 76681.4 1721.51   2
  -2   2   1 99825.5 2235.65   3
  -2   2   2 767.968 164.523   3
  -2   2   3 135335. 2817.20   3
  -2   2   4 62912.0 2240.63   4
  -2   2   4 63925.5 1725.92   3
  -2   2   5 30705.1 1178.25   3
  -2   2   5 28614.7 1521.03   4
  -2   2   6 31664.8 1676.72   4
  -2   2   6 31749.6 1288.81   3
  -2   2   7 19565.4 1377.66   4
  -2   2   8 109367. 3698.44   4
  -2   2   9 191.614 229.317   4
  -2   2  10 84010.7 3433.04   4
  -2   2  11 13080.5 1356.88   4
  -2   2  12 42031.3 2554.68   4
  -2   2  13 30857.9 2264.55   4
  -2   2  14 1627.94 628.898   4
  -2   2  15 27505.7 2318.00   4
  -2   2  16 3716.66 870.947   4
  -2   2  17 17824.6 1999.36   4
  -2   2  18 10227.9 1590.79   4
  -2   2  19 6858.82 1386.66   4
  -2   2  20 17955.2 2221.43   4
  -2   3 -10 19278.0 761.706   1
  -2   3  -9 26393.2 826.232   1
  -2   3  -8 55402.4 1211.27   1
  -2   3  -7 215.950 57.3375   1
  -2   3  -4 89803.2 1721.72   1
  -2   3  -4 94000.4 2469.71   2
  -2   3  -3 60886.9 1393.40   1
  -2   3  -3 63844.5 1855.67   2
  -2   3  -2 321.861 115.962   1
  -2   3  -2 204.692 138.497   2
  -2   3  -1 94610.3 2373.61   2
  -2   3  -1 97136.3 2207.22   1
  -2   3   0 29701.0 1121.14   1
  -2   3   0 29030.9 1143.35   2
  -2   3   1 191303. 3945.03   1
  -2   3   1 186022. 3585.10   3
  -2   3   1 187108. 3845.65   2
  -2   3   2 50769.0 1343.89   3
  -2   3   2 50198.6 1727.97   1
  -2   3   3 43817.9 1211.86   3
  -2   3   3 42990.0 1669.87   1
  -2   3   4 150815. 2990.13   3
  -2   3   5 596.794 300.057   4
  -2   3   5 441.216 141.973   3
  -2   3   6 45326.0 2119.06   4
  -2   3   7 14133.0 1207.53   4
  -2   3   8 69829.8 2916.12   4
  -2   3   9 59471.6 2789.67   4
  -2   3  10 18125.6 1547.23   4
  -2   3  11 52725.9 2819.28   4
  -2   3  12 31.1566 232.502   4
  -2   3  13 20020.9 1841.51   4
  -2   3  14 8799.72 1269.95   4
  -2   3  15 13660.7 1648.12   4
  -2   3  16 18412.9 1964.47   4
  -2   3  17 3547.53 975.013   4
  -2   3  18 20594.6 2256.12   4
  -2   3  19 26.3678 352.009   4
  -2   4  -9 16741.4 612.719   1
  -2   4  -7 69205.0 2518.23   2
  -2   4  -6 22773.2 1306.95   2
  -2   4  -5 114643. 3193.35   2
  -2   4  -4 6002.61 616.115   2
  -2   4  -3 80398.0 1937.58   1
  -2   4  -3 78180.6 2396.20   2
  -2   4  -2 29495.6 1340.82   2
  -2   4  -2 30587.4 1122.32   1
  -2   4  -1 26071.6 1262.18   2
  -2   4  -1 27654.3 1132.19   1
  -2   4   0 33863.1 1439.84   2
  -2   4   0 32018.3 1308.54   1
  -2   4   1 1068.01 278.087   2
  -2   4   1 943.415 257.569   1
  -2   4   2 55545.3 1954.57   1
  -2   4   2 53369.7 1347.80   3
  -2   4   2 53765.9 1889.91   2
  -2   4   3 4715.62 309.086   3
  -2   4   3 4163.68 529.449   1
  -2   4   4 135199. 2566.26   3
  -2   4   4 140757. 3722.73   1
  -2   4   5 118495. 3482.38   1
  -2   4   7 79127.8 3131.03   4
  -2   4   8 409.356 346.835   4
  -2   4   9 48374.3 2567.25   4
  -2   4  10 1971.12 530.125   4
  -2   4  11 32505.3 2245.84   4
  -2   4  12 23982.5 1975.73   4
  -2   4  13 4980.46 933.212   4
  -2   4  14 24533.5 2165.65   4
  -2   4  15 1684.76 635.880   4
  -2   4  16 17973.6 2004.77   4
  -2   4  17 642.630 494.378   4
  -2   4  18 16548.7 2060.55   4
  -2   4  19 2727.75 870.022   4
  -2   5 -10 23130.3 1659.34   2
  -2   5  -9 80652.2 3116.51   2
  -2   5  -8 2646.53 567.845   2
  -2   5  -7 30396.4 1707.89   2
  -2   5  -6 472.856 241.772   2
  -2   5  -5 34641.3 1731.25   2
  -2   5  -4 13607.7 1035.00   2
  -2   5  -3 2678.10 486.043   2
  -2   5  -2 44959.0 1588.98   1
  -2   5  -2 46328.0 1935.91   2
  -2   5  -1 7684.52 765.957   2
  -2   5  -1 7095.25 622.546   1
  -2   5   0 55833.6 1958.20   1
  -2   5   0 55035.3 2136.82   2
  -2   5   1 32450.7 1514.83   1
  -2   5   1 30222.6 1529.48   2
  -2   5   2 57314.7 1383.28   3
  -2   5   2 60779.7 2234.37   2
  -2   5   2 63428.1 2248.36   1
  -2   5   3 48279.6 1981.59   1
  -2   5   3 46016.8 1915.79   2
  -2   5   4 9735.06 901.672   1
  -2   5   5 138044. 4029.81   1
  -2   5   6 4438.02 679.601   1
  -2   5   7 94116.2 3379.07   1
  -2   5   9 13060.3 1354.93   4
  -2   5  10 5975.68 963.766   4
  -2   5  11 1214.32 425.633   4
  -2   5  12 28698.1 2249.19   4
  -2   5  13 712.068 492.586   4
  -2   5  14 25877.1 2292.43   4
  -2   5  15 4470.79 989.584   4
  -2   5  16 12267.1 1663.98   4
  -2   5  17 14015.1 1850.89   4
  -2   5  18 1068.14 609.825   4
  -2   6 -19 2229.53 750.201   2
  -2   6 -18 26788.8 2476.22   2
  -2   6 -17-279.450 494.696   2
  -2   6 -16 27662.0 2356.51   2
  -2   6 -15 12255.2 1519.23   2
  -2   6 -14 14714.3 1591.25   2
  -2   6 -13 34688.2 2382.29   2
  -2   6 -12 4471.45 853.705   2
  -2   6 -11 49754.1 2696.75   2
  -2   6 -10 20.8125 298.613   2
  -2   6  -9 49890.3 2540.80   2
  -2   6  -8 25443.6 1725.12   2
  -2   6  -7 4181.73 675.236   2
  -2   6  -6 11763.6 1099.84   2
  -2   6  -5 2357.89 496.909   2
  -2   6  -4 37762.8 1951.88   2
  -2   6  -3 19248.0 1364.65   2
  -2   6  -2 79343.3 2909.93   2
  -2   6  -2 78378.1 2424.21   1
  -2   6  -1 30147.0 1451.65   1
  -2   6  -1 28302.1 1646.32   2
  -2   6   0 38427.0 1931.89   2
  -2   6   0 40149.8 1770.63   1
  -2   6   1 41839.9 1861.30   1
  -2   6   1 38032.5 1909.79   2
  -2   6   2 6354.11 343.282   3
  -2   6   2 5643.61 696.757   1
  -2   6   2 5591.76 710.099   2
  -2   6   3 63483.4 2491.56   1
  -2   6   3 59082.5 2442.63   2
  -2   6   4 7678.94 847.160   1
  -2   6   4 10060.1 978.112   2
  -2   6   5 42809.4 2151.53   1
  -2   6   6 16592.4 1347.55   1
  -2   6   7 14337.9 1293.54   1
  -2   6   8 76246.9 3236.41   1
  -2   6  12 22739.5 2038.33   4
  -2   6  13 14892.8 1704.62   4
  -2   6  14 12124.1 1619.39   4
  -2   6  15 27650.6 2492.22   4
  -2   6  16 2535.58 868.986   4
  -2   6  17 19768.7 2262.03   4
  -2   6  18 3054.68 991.405   4
  -2   7 -18 8195.83 1439.82   2
  -2   7 -17 15975.4 1929.70   2
  -2   7 -16 7237.88 1268.21   2
  -2   7 -15 15475.2 1826.04   2
  -2   7 -14 1083.91 546.113   2
  -2   7 -13 21390.7 1955.83   2
  -2   7 -12 6664.01 1074.61   2
  -2   7 -11 19751.7 1775.53   2
  -2   7 -10 14571.5 1486.29   2
  -2   7  -9 10906.3 1243.33   2
  -2   7  -8 62901.8 3012.68   2
  -2   7  -7 5103.90 825.839   2
  -2   7  -6 33000.5 2043.40   2
  -2   7  -5 6040.55 883.485   2
  -2   7  -4 12481.8 1215.24   2
  -2   7  -3 31531.3 1938.94   2
  -2   7  -2-170.680 234.018   2
  -2   7  -2 291.439 237.885   1
  -2   7  -1 64200.6 2375.36   1
  -2   7  -1 57712.2 2640.23   2
  -2   7   0 5752.75 716.149   1
  -2   7   0 6454.58 836.477   2
  -2   7   1 56894.6 2368.82   1
  -2   7   1 54521.7 2516.54   2
  -2   7   2 8313.96 894.563   1
  -2   7   2 6977.36 873.510   2
  -2   7   3 5150.87 754.108   2
  -2   7   3 6357.27 817.547   1
  -2   7   4 34333.1 1956.45   2
  -2   7   4 31307.8 1869.44   1
  -2   7   5 219.396 279.764   1
  -2   7   6 45137.2 2392.45   1
  -2   7   7 474.379 310.749   1
  -2   7   8 99381.2 3906.46   1
  -2   7   9 4626.89 852.216   1
  -2   8 -17 15617.8 1970.11   2
  -2   8 -16 356.993 470.961   2
  -2   8 -15 19740.9 2089.71   2
  -2   8 -14 1343.53 652.153   2
  -2   8 -13 2032.50 694.327   2
  -2   8 -12 30586.7 2425.39   2
  -2   8 -11 158.265 610.103   2
  -2   8 -10 23623.8 1998.32   2
  -2   8  -9 2006.51 628.677   2
  -2   8  -8 33320.0 2289.28   2
  -2   8  -7 18728.9 1686.08   2
  -2   8  -6 10289.1 1229.79   2
  -2   8  -5 18543.7 1625.70   2
  -2   8  -4 7254.20 1021.78   2
  -2   8  -3 42408.7 1930.09   1
  -2   8  -3 46704.2 2549.94   2
  -2   8  -2 12728.5 1303.01   2
  -2   8  -2 11763.6 1017.88   1
  -2   8  -1 27273.5 1902.24   2
  -2   8  -1 29100.6 1688.48   1
  -2   8   0 24793.6 1596.32   1
  -2   8   0 29640.0 1961.87   2
  -2   8   1 8247.66 929.233   1
  -2   8   1 7999.41 1003.41   2
  -2   8   2 32785.4 1928.58   1
  -2   8   2 33950.4 2083.53   2
  -2   8   3 3018.32 613.490   2
  -2   8   3 3327.62 664.279   1
  -2   8   4 78640.0 3297.08   2
  -2   8   4 78713.9 3243.53   1
  -2   8   5 815.642 413.902   1
  -2   8   6 27634.2 1957.84   1
  -2   8   7 7463.41 1029.99   1
  -2   8   8 5478.27 902.186   1
  -2   8   9 44441.1 2717.22   1
  -2   9 -16 13052.7 1846.67   2
  -2   9 -15 1506.30 758.191   2
  -2   9 -14 8222.89 1424.85   2
  -2   9 -13 4374.84 1031.90   2
  -2   9 -12 14946.6 1767.73   2
  -2   9 -11 8134.68 1267.08   2
  -2   9 -10 6242.09 1087.77   2
  -2   9  -9 12919.4 1551.43   2
  -2   9  -8 819.086 418.871   2
  -2   9  -7 38915.7 2619.53   2
  -2   9  -6 865.242 426.124   2
  -2   9  -5 42203.8 2645.63   2
  -2   9  -4 11509.3 1024.08   1
  -2   9  -4 12157.4 1401.38   2
  -2   9  -3 7410.89 1077.62   2
  -2   9  -3 7862.74 865.433   1
  -2   9  -2 30976.7 1786.70   1
  -2   9  -2 32336.6 2258.53   2
  -2   9  -1 148.515 294.089   1
  -2   9  -1-217.943 427.866   2
  -2   9   0 62173.0 2736.01   1
  -2   9   0 60069.9 3075.07   2
  -2   9   1 5137.45 800.900   1
  -2   9   1 6221.01 961.691   2
  -2   9   2 29396.0 2068.81   2
  -2   9   2 32512.0 2038.62   1
  -2   9   3 7576.32 1071.00   2
  -2   9   3 5600.25 893.044   1
  -2   9   4 6218.87 961.793   2
  -2   9   4 5944.17 912.064   1
  -2   9   5 30704.7 2116.39   1
  -2   9   6-355.947 427.171   1
  -2   9   7 23070.4 1916.57   1
  -2   9   8 13871.5 1526.49   1
  -2   9   9 8884.68 1247.84   1
  -2  10 -15 2410.10 858.515   2
  -2  10 -14 1945.77 751.774   2
  -2  10 -13 4978.07 1140.92   2
  -2  10 -12 955.079 582.324   2
  -2  10 -11 15298.3 1855.65   2
  -2  10 -10 160.024 441.440   2
  -2  10  -9 23745.0 2254.01   2
  -2  10  -8 5092.77 1095.29   2
  -2  10  -7 18703.0 1916.67   2
  -2  10  -6 18180.2 1869.96   2
  -2  10  -5 1590.83 552.314   2
  -2  10  -4 38106.5 2682.19   2
  -2  10  -3 4697.38 981.904   2
  -2  10  -2 24006.6 1676.46   1
  -2  10  -2 26839.2 2184.79   2
  -2  10  -1 7288.13 947.079   1
  -2  10  -1 9564.84 1303.51   2
  -2  10   0 12496.7 1265.90   1
  -2  10   0 13532.8 1521.53   2
  -2  10   1 25198.0 1845.15   1
  -2  10   1 25095.3 2062.01   2
  -2  10   2 127.571 317.350   1
  -2  10   2-269.226 373.694   2
  -2  10   3 37261.2 2362.48   1
  -2  10   3 39716.0 2561.48   2
  -2  10   4 3437.58 756.065   1
  -2  10   4 3432.84 765.599   2
  -2  10   5 18192.9 1715.65   1
  -2  10   6 7378.44 1120.82   1
  -2  10   7 6212.35 1032.65   1
  -2  10   8 14650.7 1643.94   1
  -2  10   9-5.12513 475.670   1
  -2  10  10 17503.3 1881.98   1
  -2  11 -13 17526.0 2168.74   2
  -2  11 -12 1943.15 757.594   2
  -2  11 -11 10266.7 1613.86   2
  -2  11 -10 8236.08 1484.01   2
  -2  11  -9 3018.00 899.589   2
  -2  11  -8 18583.6 2059.26   2
  -2  11  -7 1382.61 685.824   2
  -2  11  -6 9248.53 1483.93   2
  -2  11  -5 11433.1 1590.82   2
  -2  11  -4 14589.7 1730.05   2
  -2  11  -3 20293.1 2038.10   2
  -2  11  -2 2285.11 793.654   2
  -2  11  -1 20194.6 1964.65   2
  -2  11   0 422.028 356.045   1
  -2  11   0-110.080 379.330   2
  -2  11   1 21253.2 1789.09   1
  -2  11   1 21629.1 2006.75   2
  -2  11   2 9827.08 1242.49   1
  -2  11   2 8882.78 1329.42   2
  -2  11   3 9613.20 1325.08   2
  -2  11   3 10807.5 1331.11   1
  -2  11   4 18294.5 1793.59   1
  -2  11   4 21524.2 1992.71   2
  -2  11   5 1141.38 535.521   1
  -2  11   6 23728.6 2075.44   1
  -2  11   7 639.221 423.179   1
  -2  11   8 11536.5 1528.56   1
  -2  11   9 6548.11 1231.19   1
  -2  12 -10 13501.0 1926.21   2
  -2  12  -9 2050.40 846.432   2
  -2  12  -8 4413.63 1078.23   2
  -2  12  -7 8242.63 1471.49   2
  -2  12  -6 1132.13 544.511   2
  -2  12  -5 14026.5 1824.94   2
  -2  12  -4 104.237 479.175   2
  -2  12  -3 31456.9 2669.73   2
  -2  12  -2 1097.08 565.299   2
  -2  12  -1 11368.7 1578.46   2
  -2  12   0 9459.46 1454.14   2
  -2  12   1 3590.59 871.333   2
  -2  12   2 17521.1 1725.87   1
  -2  12   2 17544.0 1913.28   2
  -2  12   3-12.2872 476.024   2
  -2  12   3 1184.08 556.838   1
  -2  12   4 20789.4 1974.61   1
  -2  12   4 20255.1 2030.13   2
  -2  12   5 3043.76 842.817   1
  -2  12   6 4854.10 969.314   1
  -2  12   7 10286.1 1459.06   1
  -2  12   8 14.6385 491.869   1
  -2  12   9 6326.90 1183.21   1
  -2  13   4 1032.32 510.251   1
  -2  13   5 13528.7 1685.80   1
  -2  13   6-89.5661 415.512   1
  -2  13   7 11497.5 1628.72   1
  -1 -10 -17 7939.91 1443.57   6
  -1 -10 -16 11139.5 1693.77   6
  -1 -10 -15 86.7330 461.799   6
  -1 -10 -14 17522.3 1963.33   6
  -1 -10 -13 574.202 356.008   6
  -1 -10 -12 23119.6 2116.51   6
  -1 -10 -11 3809.74 826.862   6
  -1 -10 -10 18720.1 1792.54   6
  -1 -10  -9 19008.9 1749.63   6
  -1 -10  -8 354.349 321.913   6
  -1 -10  -7 20227.5 1684.50   6
  -1 -10  -6 2822.19 640.214   6
  -1 -10  -5 15637.5 1402.21   6
  -1 -10  -4 8713.44 1063.70   6
  -1 -10  -3 10407.5 1125.18   6
  -1 -10  -2 42272.4 2267.63   6
  -1 -10  -1 1344.74 400.535   6
  -1 -10   0 10731.7 1099.03   6
  -1 -10   1 11520.4 1155.59   6
  -1 -10   2 8916.33 1029.53   6
  -1  -9 -18 21540.9 2366.74   6
  -1  -9 -17 329.720 502.912   6
  -1  -9 -16 7428.61 1316.62   6
  -1  -9 -15 2519.21 792.914   6
  -1  -9 -14 10935.4 1512.98   6
  -1  -9 -13 11430.2 1461.31   6
  -1  -9 -12 12821.0 1530.66   6
  -1  -9 -11 18987.8 1788.32   6
  -1  -9 -10 2097.67 606.911   6
  -1  -9  -9 16666.2 1572.30   6
  -1  -9  -8 2568.67 580.652   6
  -1  -9  -7 15082.2 1412.52   6
  -1  -9  -6 22983.4 1671.81   6
  -1  -9  -5 1293.57 393.093   6
  -1  -9  -4 32665.0 1911.85   6
  -1  -9  -3 3087.78 603.006   6
  -1  -9  -2 26762.2 1681.65   6
  -1  -9  -1 18878.7 1385.17   6
  -1  -9   0 3242.38 560.319   6
  -1  -9   1 68681.5 2742.25   6
  -1  -9   2 891.174 347.449   6
  -1  -9   3 98584.5 3264.01   4
  -1  -9   3 92053.7 3402.85   6
  -1  -9   4 2461.61 492.366   4
  -1  -9   5 61598.0 2663.94   4
  -1  -8 -19 317.651 535.488   6
  -1  -8 -18 15849.4 1992.14   6
  -1  -8 -17 4545.83 1071.36   6
  -1  -8 -16 7094.88 1252.94   6
  -1  -8 -15 19400.7 2014.95   6
  -1  -8 -14 1445.11 649.802   6
  -1  -8 -13 17483.9 1763.45   6
  -1  -8 -12 218.242 333.120   6
  -1  -8 -11 23619.9 1921.81   6
  -1  -8 -10 1051.98 444.875   6
  -1  -8  -9 19118.7 1623.62   6
  -1  -8  -8 28653.4 1935.18   6
  -1  -8  -7 425.615 248.224   6
  -1  -8  -6 29311.5 1798.83   6
  -1  -8  -5 35050.3 1921.48   6
  -1  -8  -4 17499.0 1303.69   6
  -1  -8  -3 49244.7 2188.89   6
  -1  -8  -2 16980.0 1235.51   6
  -1  -8  -1 89862.4 3040.98   6
  -1  -8   0 5714.67 705.105   6
  -1  -8   1 79033.9 2801.25   6
  -1  -8   2 2402.91 475.243   6
  -1  -8   3 27518.5 1645.26   6
  -1  -8   3 29984.1 1601.97   4
  -1  -8   4 26179.5 1547.48   4
  -1  -8   5 3476.42 599.532   4
  -1  -8   6 33686.2 1906.77   4
  -1  -8   7-117.357 235.558   4
  -1  -8   8 31814.8 1981.14   4
  -1  -8   9 12120.0 1266.22   4
  -1  -8  10 12920.5 1353.30   4
  -1  -8  11 21476.7 1810.72   4
  -1  -8  12 3809.39 816.179   4
  -1  -7 -10 32932.2 2125.04   6
  -1  -7  -9 405.011 319.948   6
  -1  -7  -8 32457.1 1941.22   6
  -1  -7  -7 28665.3 1753.81   6
  -1  -7  -6 19844.6 1407.29   6
  -1  -7  -5 47187.7 2131.79   6
  -1  -7  -4 4468.56 620.959   6
  -1  -7  -3 76150.9 2636.26   6
  -1  -7  -2 1329.78 334.246   6
  -1  -7  -1 56128.1 2153.76   6
  -1  -7   0 37207.9 1698.37   6
  -1  -7   1 27501.2 1449.21   6
  -1  -7   2 90754.9 2897.50   6
  -1  -7   3 1284.90 366.251   6
  -1  -7   3 2335.71 431.431   4
  -1  -7   4 61405.1 2333.44   4
  -1  -7   5 25458.7 1514.82   4
  -1  -7   6 23153.4 1500.01   4
  -1  -7   7 18497.6 1389.56   4
  -1  -7   8 12944.6 1211.04   4
  -1  -7   9 21283.3 1645.50   4
  -1  -7  10 1148.43 401.963   4
  -1  -7  11 40024.4 2456.48   4
  -1  -7  12 3671.62 752.822   4
  -1  -7  13 18184.3 1759.33   4
  -1  -7  14 15941.2 1717.53   4
  -1  -7  15 5834.21 1102.21   4
  -1  -7  16 7779.55 1277.33   4
  -1  -7  17 921.223 492.925   4
  -1  -6  -8 14141.8 624.631   3
  -1  -6  -7 29618.0 808.033   3
  -1  -6  -7 33916.2 1819.74   6
  -1  -6  -6 4008.10 593.109   6
  -1  -6  -5 70189.2 2545.94   6
  -1  -6  -4 35050.3 1626.44   6
  -1  -6  -4 30727.6 804.631   3
  -1  -6  -3 44964.5 1810.84   6
  -1  -6  -2 69293.2 2264.74   6
  -1  -6  -1 2814.90 440.679   6
  -1  -6   0 76165.7 2358.00   6
  -1  -6   1 5913.68 594.645   6
  -1  -6   2 90719.2 2711.95   6
  -1  -6   3 47512.2 1928.73   6
  -1  -6   3 45885.2 1790.92   4
  -1  -6   4 20389.5 1215.64   4
  -1  -6   5 37481.4 1775.09   4
  -1  -6   6 519.403 280.736   4
  -1  -6   7 53210.8 2350.64   4
  -1  -6   8 1897.92 487.795   4
  -1  -6   9 30722.6 1919.40   4
  -1  -6  10 42877.5 2402.08   4
  -1  -6  11 40935.4 2440.22   4
  -1  -6  12 10493.0 1281.47   4
  -1  -6  13 6609.43 1059.13   4
  -1  -6  14 3833.46 851.115   4
  -1  -6  15 1661.30 604.782   4
  -1  -6  16 9281.13 1408.61   4
  -1  -6  17 10054.5 1520.82   4
  -1  -6  18 7613.69 1380.87   4
  -1  -6  19 16069.3 2026.26   4
  -1  -5  -6 76095.7 1739.60   3
  -1  -5  -5 55682.5 1301.38   3
  -1  -5  -5 57616.6 2094.97   6
  -1  -5  -4 27055.9 788.113   3
  -1  -5  -4 28808.2 1358.60   6
  -1  -5  -3 498.380 239.905   6
  -1  -5  -3 423.901 114.453   3
  -1  -5  -2 34263.1 1048.44   3
  -1  -5  -2 32924.9 1351.79   6
  -1  -5  -1 57199.3 1810.13   6
  -1  -5  -1 59159.3 1685.04   4
  -1  -5  -1 57583.3 1595.95   3
  -1  -5   0 28684.5 1214.00   6
  -1  -5   1 78240.5 2215.78   6
  -1  -5   2 48092.5 1722.67   6
  -1  -5   3 122883. 3087.79   4
  -1  -5   4 937.535 263.414   4
  -1  -5   5 60632.9 2219.73   4
  -1  -5   6 49353.2 2079.21   4
  -1  -5   7 33110.3 1762.72   4
  -1  -5   8 25926.7 1635.00   4
  -1  -5   9 3959.91 685.240   4
  -1  -5  10 22346.2 1683.58   4
  -1  -5  11 264.475 266.560   4
  -1  -5  12 37678.4 2396.59   4
  -1  -5  13 4667.96 875.809   4
  -1  -5  14 9263.39 1299.02   4
  -1  -5  15 31853.9 2464.50   4
  -1  -5  16 2070.44 617.653   4
  -1  -5  17 21107.8 2177.60   4
  -1  -5  18 1767.69 596.183   4
  -1  -5  19 13687.7 1858.60   4
  -1  -5  20 4933.73 1186.22   4
  -1  -4  -4 147547. 2779.57   3
  -1  -4  -3 28719.3 1186.86   6
  -1  -4  -3 29475.5 869.010   3
  -1  -4  -2 34360.0 1237.68   6
  -1  -4  -2 33697.1 999.098   3
  -1  -4  -2 36649.1 1190.60   4
  -1  -4  -1 69643.3 1851.91   6
  -1  -4  -1 72175.7 1746.04   3
  -1  -4  -1 74932.0 1762.27   4
  -1  -4   0 135.560 137.622   6
  -1  -4   0-68.1930 107.654   3
  -1  -4   1 64109.3 1772.87   6
  -1  -4   1 66756.1 1886.97   3
  -1  -4   2 21907.8 1007.29   6
  -1  -4   2 22707.9 954.269   4
  -1  -4   3 132779. 3102.04   4
  -1  -4   4 28630.8 1302.05   4
  -1  -4   5 29976.0 1426.85   4
  -1  -4   6 59388.5 2239.74   4
  -1  -4   7-86.7353 189.440   4
  -1  -4   8 42022.2 2070.34   4
  -1  -4   9 8309.79 945.216   4
  -1  -4  10 42405.9 2313.30   4
  -1  -4  11 51981.0 2676.41   4
  -1  -4  12 27587.4 2010.48   4
  -1  -4  13 47644.3 2781.23   4
  -1  -4  14 682.056 407.501   4
  -1  -4  15 13517.1 1587.93   4
  -1  -4  16 6433.40 1155.68   4
  -1  -4  17 10018.3 1492.57   4
  -1  -4  18 11929.2 1669.08   4
  -1  -4  19 732.537 481.994   4
  -1  -4  20 16803.4 2126.59   4
  -1  -3  -3 63122.5 1715.97   4
  -1  -3  -3 60585.4 1440.69   3
  -1  -3  -2 12131.6 577.507   4
  -1  -3  -2 11673.8 589.923   6
  -1  -3  -2 11689.4 510.014   3
  -1  -3  -1 36310.2 1047.57   3
  -1  -3  -1 37057.2 975.499   4
  -1  -3  -1 35171.9 1023.58   6
  -1  -3   0 30388.5 1011.01   3
  -1  -3   0 29345.0 904.895   6
  -1  -3   1 15035.3 739.260   3
  -1  -3   1 13279.0 612.240   6
  -1  -3   2 80071.0 1913.33   4
  -1  -3   2 79955.3 2147.44   3
  -1  -3   3 12452.5 716.542   4
  -1  -3   4 46617.8 1628.80   4
  -1  -3   5 17040.0 1027.36   4
  -1  -3   6 187469. 4484.23   4
  -1  -3   7 31190.4 1630.13   4
  -1  -3   8 32633.8 1777.44   4
  -1  -3   9 131662. 4105.28   4
  -1  -3  10 2090.16 526.890   4
  -1  -3  11 53610.3 2690.66   4
  -1  -3  12 18616.3 1620.33   4
  -1  -3  13 31472.0 2209.74   4
  -1  -3  14 14189.1 1548.65   4
  -1  -3  15 2280.68 674.388   4
  -1  -3  16 19735.3 1988.04   4
  -1  -3  17-423.153 506.890   4
  -1  -3  18 14317.3 1851.49   4
  -1  -3  19 6093.67 1257.38   4
  -1  -3  20 16240.8 2112.56   4
  -1  -2  -3 185615. 3602.55   4
  -1  -2  -2 10938.8 687.632   2
  -1  -2  -2 10160.8 485.005   4
  -1  -2  -2 10395.4 484.143   3
  -1  -2  -1 984.774 152.043   3
  -1  -2  -1 768.351 107.056   6
  -1  -2  -1 457.355 154.939   2
  -1  -2   0 20478.9 736.485   3
  -1  -2   0 18476.3 830.347   2
  -1  -2   1 15651.0 752.169   2
  -1  -2   1 16727.7 723.729   3
  -1  -2   1 15707.9 518.369   4
  -1  -2   2 178274. 3577.47   3
  -1  -2   2 177309. 3304.80   4
  -1  -2   3 2855.82 367.666   3
  -1  -2   3 2753.77 316.256   4
  -1  -2   4 84063.9 2278.40   4
  -1  -2   5 82438.1 2424.83   4
  -1  -2   6 3951.04 523.904   4
  -1  -2   7 202934. 4901.59   4
  -1  -2   8 37345.5 1877.11   4
  -1  -2   9 73975.0 2905.85   4
  -1  -2  10 35119.8 2025.39   4
  -1  -2  11 13116.9 1278.56   4
  -1  -2  12 18911.5 1642.08   4
  -1  -2  13 3131.99 708.064   4
  -1  -2  14 38545.6 2587.34   4
  -1  -2  15 2700.69 723.007   4
  -1  -2  16 22399.3 2107.85   4
  -1  -2  17 10881.6 1534.65   4
  -1  -2  18 6301.10 1266.92   4
  -1  -2  19 14612.9 1905.93   4
  -1  -2  20-286.869 434.023   4
  -1  -1  -4 36035.2 1326.46   4
  -1  -1  -3 5017.28 404.414   4
  -1  -1  -2 309367. 5222.86   2
  -1  -1  -2 302642. 5108.40   4
  -1  -1   1 6916.01 406.340   3
  -1  -1   1 6954.33 309.679   4
  -1  -1   2 34046.6 1001.76   4
  -1  -1   2 34031.7 1099.32   3
  -1  -1   3 240677. 4512.84   3
  -1  -1   3 231957. 4400.40   4
  -1  -1   4 73299.9 2070.63   3
  -1  -1   4 73026.2 2078.17   4
  -1  -1   5 108355. 2877.56   4
  -1  -1   6 41604.5 1739.32   4
  -1  -1   7 20810.7 1289.13   4
  -1  -1   8 25874.2 1535.55   4
  -1  -1   9 20796.8 1454.52   4
  -1  -1  10 53405.9 2535.64   4
  -1  -1  11 649.344 378.808   4
  -1  -1  12 40626.5 2412.36   4
  -1  -1  13 12753.6 1401.74   4
  -1  -1  14 14571.7 1576.99   4
  -1  -1  15 41677.2 2770.69   4
  -1  -1  16 3793.77 903.545   4
  -1  -1  17 29833.0 2518.03   4
  -1  -1  18 2890.98 853.450   4
  -1  -1  19 12840.3 1792.21   4
  -1  -1  20 5752.61 1251.00   4
  -1  -1  21 6573.07 1411.43   4
  -1   0  -6 304831. 5384.66   1
  -1   0  -3 1304.56 230.022   4
  -1   0  -2 242360. 4266.04   6
  -1   0   2 34218.0 999.071   3
  -1   0   2 33010.8 1042.16   4
  -1   0   3 11421.2 601.376   3
  -1   0   3 11415.8 663.059   4
  -1   0   4 1671.41 306.505   4
  -1   0   4 1277.66 242.549   3
  -1   0   5 10743.9 798.458   4
  -1   0   6 16155.1 1066.01   4
  -1   0   7 8609.33 827.619   4
  -1   0   8 124352. 3762.29   4
  -1   0   9 3386.90 599.963   4
  -1   0  10 46742.2 2373.32   4
  -1   0  11 30429.0 1989.80   4
  -1   0  12 13849.1 1399.15   4
  -1   0  13 26313.5 2005.21   4
  -1   0  14 1815.20 563.498   4
  -1   0  15 47297.1 2959.24   4
  -1   0  16 10709.9 1450.80   4
  -1   0  17 29073.4 2502.98   4
  -1   0  18 22196.4 2262.65   4
  -1   0  19 3055.32 913.800   4
  -1   0  20 14600.3 1978.01   4
  -1   0  21 1062.28 570.817   4
  -1   1  -7 913.202 181.816   1
  -1   1  -6 342926. 5741.72   1
  -1   1  -5 4546.06 287.154   1
  -1   1  -4 212600. 3457.39   1
  -1   1  -3 6467.83 519.511   6
  -1   1  -2 34600.6 1162.85   6
  -1   1  -1 107248. 2300.73   6
  -1   1  -1 105994. 1917.70   2
  -1   1   0 49447.2 1044.14   2
  -1   1   0 50144.3 1334.15   6
  -1   1   1 125539. 2578.31   6
  -1   1   1 121508. 2224.30   3
  -1   1   2 52801.8 1526.14   4
  -1   1   2 54748.6 1241.49   3
  -1   1   3 38125.9 1079.62   3
  -1   1   3 37450.7 1341.28   4
  -1   1   4 39527.5 1221.08   3
  -1   1   4 39161.9 1493.85   4
  -1   1   5 1191.03 299.989   4
  -1   1   6 55308.4 2098.66   4
  -1   1   7 57926.4 2301.48   4
  -1   1   8 16902.3 1253.08   4
  -1   1   9 80148.8 3071.72   4
  -1   1  10 7547.59 943.030   4
  -1   1  11 47483.1 2535.06   4
  -1   1  12 298.454 282.420   4
  -1   1  13 31508.8 2230.95   4
  -1   1  14 16949.2 1693.56   4
  -1   1  15 12664.4 1514.11   4
  -1   1  16 42281.2 2911.81   4
  -1   1  17 4198.97 997.740   4
  -1   1  18 30859.0 2658.44   4
  -1   1  19 7766.88 1422.60   4
  -1   1  20 15330.1 2021.14   4
  -1   2  -2 15054.3 696.051   2
  -1   2  -1 2379.73 290.268   2
  -1   2  -1 2527.29 391.227   6
  -1   2   0 123349. 2760.96   6
  -1   2   0 116141. 2512.25   2
  -1   2   0 125602. 2458.19   1
  -1   2   1 85222.8 2154.89   6
  -1   2   1 78966.3 1560.22   3
  -1   2   1 82504.5 1927.75   2
  -1   2   1 80850.5 1921.55   1
  -1   2   2 297191. 4736.05   3
  -1   2   2 296614. 5397.39   1
  -1   2   3 112124. 2707.50   1
  -1   2   3 117040. 2171.81   3
  -1   2   3 113753. 2866.80   4
  -1   2   4 10016.6 706.773   1
  -1   2   4 9734.69 749.556   4
  -1   2   5 56430.2 1918.24   1
  -1   2   5 57458.5 2081.56   4
  -1   2   6 8125.60 788.264   4
  -1   2   7 39210.9 1882.99   4
  -1   2   8 574.519 236.663   4
  -1   2   9 89298.5 3311.87   4
  -1   2  10 12613.8 1225.32   4
  -1   2  11 37205.7 2230.94   4
  -1   2  12 36414.6 2307.10   4
  -1   2  13 2468.46 601.071   4
  -1   2  14 35087.5 2456.81   4
  -1   2  15 3590.69 838.188   4
  -1   2  16 31966.4 2529.59   4
  -1   2  17 8779.08 1399.52   4
  -1   2  18 18539.8 2069.72   4
  -1   2  19 19329.1 2198.29   4
  -1   2  20 927.152 610.145   4
  -1   3  -4 73643.4 2201.65   2
  -1   3  -3 8559.81 651.115   2
  -1   3  -2 35762.8 1339.33   2
  -1   3  -1 36622.2 1347.64   2
  -1   3   0 88761.8 2341.85   2
  -1   3   1 29831.7 1223.40   2
  -1   3   1 29323.9 1156.43   1
  -1   3   2 139068. 3188.41   1
  -1   3   2 135516. 3161.52   2
  -1   3   3 148995. 3482.19   1
  -1   3   4 42178.0 1745.38   4
  -1   3   4 44795.1 1706.63   1
  -1   3   5 119816. 3237.27   1
  -1   3   5 116962. 3344.86   4
  -1   3   6 1470.30 371.873   4
  -1   3   6 1385.06 322.392   1
  -1   3   7 35746.3 1712.02   1
  -1   3   7 34641.6 1818.44   4
  -1   3   8 12168.1 1107.17   4
  -1   3   9 5890.98 824.949   4
  -1   3  10 84870.0 3425.49   4
  -1   3  11 1093.47 425.776   4
  -1   3  12 38357.3 2427.11   4
  -1   3  13 35291.8 2408.77   4
  -1   3  14 22808.4 2001.13   4
  -1   3  15 24343.1 2139.25   4
  -1   3  16 3633.36 882.120   4
  -1   3  17 19854.1 2091.67   4
  -1   3  18 1811.90 708.426   4
  -1   3  19 21640.2 2354.54   4
  -1   3  20 3839.41 1026.44   4
  -1   4  -6 65078.3 2391.64   2
  -1   4  -5 1280.24 331.249   2
  -1   4  -4 105743. 3024.19   2
  -1   4  -3 66526.2 2223.77   2
  -1   4  -2 118080. 3136.63   2
  -1   4  -1 81600.0 2475.63   2
  -1   4   0 55971.7 1992.22   2
  -1   4   1 50114.8 1868.99   2
  -1   4   2 48836.4 1788.85   1
  -1   4   2 46928.7 1809.84   2
  -1   4   3 71877.6 2370.29   1
  -1   4   3 76764.8 2424.91   2
  -1   4   4 748.409 270.343   1
  -1   4   5 57784.8 2189.58   1
  -1   4   5 55059.9 2229.43   4
  -1   4   6 185615. 4657.76   1
  -1   4   6 183249. 4792.20   4
  -1   4   7 6721.61 774.721   1
  -1   4   7 8982.44 942.661   4
  -1   4   8 60789.0 2533.85   1
  -1   4   8 58541.8 2623.12   4
  -1   4   9 10445.7 1036.03   1
  -1   4   9 14699.2 1319.89   4
  -1   4  10 29248.5 1958.00   4
  -1   4  11 30977.5 2101.40   4
  -1   4  12 3074.82 696.257   4
  -1   4  13 56943.5 3129.35   4
  -1   4  14 715.408 428.565   4
  -1   4  15 31175.2 2473.60   4
  -1   4  16 2652.52 856.434   4
  -1   4  17 19081.7 2072.61   4
  -1   4  18 7723.65 1379.98   4
  -1   4  19 5104.18 1206.80   4
  -1   4  20 10448.3 1700.63   4
  -1   5 -10 90858.6 3516.99   2
  -1   5  -9 271.139 201.765   2
  -1   5  -8 56573.6 2526.62   2
  -1   5  -7 10546.3 1015.35   2
  -1   5  -6 59136.6 2446.73   2
  -1   5  -5 55674.4 2305.29   2
  -1   5  -4 15962.6 1149.43   2
  -1   5  -3 96354.4 3060.94   2
  -1   5  -2 7710.47 791.317   2
  -1   5  -1 91874.9 2938.39   2
  -1   5   0 817.264 297.177   2
  -1   5   1 42444.4 1086.38   3
  -1   5   1 39725.5 1841.56   2
  -1   5   2 37768.8 1673.51   1
  -1   5   2 35010.7 1712.57   2
  -1   5   3 484.880 283.652   1
  -1   5   3 756.066 281.915   2
  -1   5   4 108324. 3310.71   1
  -1   5   4 107518. 3289.99   2
  -1   5   5 209.432 235.787   1
  -1   5   6 110879. 3532.49   1
  -1   5   7 45749.1 2204.70   1
  -1   5   7 49301.3 2367.97   4
  -1   5   8 18568.2 1464.89   4
  -1   5   8 19299.9 1447.70   1
  -1   5   9 38159.8 2123.87   1
  -1   5   9 40037.5 2285.43   4
  -1   5  10 859.783 407.179   4
  -1   5  10 1140.06 359.655   1
  -1   5  11 27228.9 2011.69   4
  -1   5  12 2893.71 720.492   4
  -1   5  13 32001.6 2364.94   4
  -1   5  14 11832.7 1489.14   4
  -1   5  15 13273.6 1643.66   4
  -1   5  16 25067.9 2320.39   4
  -1   5  17 1700.98 666.036   4
  -1   5  18 23737.6 2416.57   4
  -1   5  19-785.627 548.895   4
  -1   6 -19 9465.25 1529.65   2
  -1   6 -18 42.1444 463.074   2
  -1   6 -17 17066.0 1935.11   2
  -1   6 -16 3291.24 829.814   2
  -1   6 -15 16419.6 1774.06   2
  -1   6 -14 19921.5 1883.67   2
  -1   6 -13 478.355 426.370   2
  -1   6 -12 34049.8 2335.93   2
  -1   6 -11 250.662 319.785   2
  -1   6 -10 57497.0 2883.37   2
  -1   6  -9 31357.2 2017.99   2
  -1   6  -8 19707.8 1552.10   2
  -1   6  -7 45398.2 2329.85   2
  -1   6  -6 2492.19 522.548   2
  -1   6  -5 49782.4 2339.24   2
  -1   6  -4 8147.97 918.747   2
  -1   6  -3 56543.1 2447.97   2
  -1   6  -2 45949.5 2172.46   2
  -1   6  -1 32168.7 1803.65   2
  -1   6   0 87457.2 2113.76   3
  -1   6   0 86615.5 3094.39   2
  -1   6   1 2291.48 508.712   2
  -1   6   1 2477.94 242.540   3
  -1   6   2 64868.4 2454.97   1
  -1   6   2 64955.9 2629.88   2
  -1   6   3 10316.9 965.258   1
  -1   6   3 11095.9 1024.55   2
  -1   6   4 14939.8 1193.72   1
  -1   6   4 13134.5 1142.44   2
  -1   6   5 17892.6 1338.35   1
  -1   6   5 17340.3 1333.31   2
  -1   6   6 7828.21 938.015   1
  -1   6   7 52804.4 2499.26   1
  -1   6   8 216.873 266.803   1
  -1   6   9 70955.3 3119.80   1
  -1   6  10 646.229 409.825   4
  -1   6  10 298.990 274.345   1
  -1   6  11 3506.06 764.122   4
  -1   6  11 6046.11 945.305   1
  -1   6  12 29362.0 2239.59   4
  -1   6  13 2712.72 731.261   4
  -1   6  14 52886.3 3238.00   4
  -1   6  15 132.251 378.367   4
  -1   6  16 32870.4 2722.46   4
  -1   6  17 340.495 349.178   4
  -1   6  18 13363.3 1869.20   4
  -1   6  19 2199.96 807.893   4
  -1   7 -18 10716.8 1640.99   2
  -1   7 -17 4311.45 1017.03   2
  -1   7 -16 17872.9 1998.43   2
  -1   7 -15 1434.54 642.601   2
  -1   7 -14 10809.9 1456.12   2
  -1   7 -13 7484.79 1185.49   2
  -1   7 -12 7603.92 1162.83   2
  -1   7 -11 32416.6 2318.81   2
  -1   7 -10 11339.8 1321.32   2
  -1   7  -9 41110.4 2475.96   2
  -1   7  -8 3269.93 728.320   2
  -1   7  -7 54719.7 2766.34   2
  -1   7  -6 2164.41 564.053   2
  -1   7  -5 16634.0 1447.46   2
  -1   7  -4 43224.2 2322.80   2
  -1   7  -3 1886.15 495.687   2
  -1   7  -2 115625. 3979.98   2
  -1   7  -1 8256.13 988.605   2
  -1   7   0 59877.2 2709.53   2
  -1   7   1 6364.37 859.454   2
  -1   7   1 7192.43 446.406   3
  -1   7   2 5789.49 834.301   2
  -1   7   2 5507.09 758.905   1
  -1   7   3 29610.9 1759.94   1
  -1   7   3 29075.3 1832.01   2
  -1   7   4 1417.33 441.261   1
  -1   7   4 1400.31 435.864   2
  -1   7   5 66918.5 2861.21   1
  -1   7   5 61120.3 2780.73   2
  -1   7   6 426.678 312.098   1
  -1   7   7 13856.0 1334.50   1
  -1   7   8 10624.2 1176.25   1
  -1   7   9 26273.5 1929.65   1
  -1   7  10 42328.5 2541.22   1
  -1   7  11 4431.42 857.585   1
  -1   7  13 797.483 457.988   4
  -1   7  14 36859.1 2770.14   4
  -1   7  15 6854.16 1259.05   4
  -1   7  16 3961.23 1012.14   4
  -1   7  17 13470.7 1844.01   4
  -1   7  18-222.083 453.192   4
  -1   8 -17 3229.98 997.018   2
  -1   8 -16 13507.9 1828.75   2
  -1   8 -15 7582.21 1359.68   2
  -1   8 -14 6360.92 1214.88   2
  -1   8 -13 11617.9 1549.48   2
  -1   8 -12-55.0768 441.728   2
  -1   8 -11 27271.9 2226.15   2
  -1   8 -10-47.2471 348.983   2
  -1   8  -9 13090.7 1489.48   2
  -1   8  -8 17009.8 1643.71   2
  -1   8  -7 11095.9 1316.78   2
  -1   8  -6 42165.3 2524.97   2
  -1   8  -5 566.583 429.353   2
  -1   8  -4 38870.6 2381.88   2
  -1   8  -3 12495.2 1314.76   2
  -1   8  -2 26433.7 1921.63   2
  -1   8  -1 44794.2 2500.29   2
  -1   8   0 1091.94 472.606   2
  -1   8   1 58699.8 2878.01   2
  -1   8   2 2221.01 571.536   1
  -1   8   2 1166.03 462.102   2
  -1   8   3 27177.0 1909.78   2
  -1   8   3 27984.0 1831.53   1
  -1   8   4 1420.57 518.878   1
  -1   8   4 1311.89 470.304   2
  -1   8   5 18129.7 1528.93   1
  -1   8   5 16487.1 1486.73   2
  -1   8   6 17206.6 1508.02   1
  -1   8   7 6164.34 944.745   1
  -1   8   8 43397.2 2572.66   1
  -1   8   9 328.191 360.882   1
  -1   8  10 54118.0 3012.27   1
  -1   8  11 4457.40 867.241   1
  -1   8  12 7818.91 1197.16   1
  -1   9 -16 873.284 728.373   2
  -1   9 -15 18182.5 2113.66   2
  -1   9 -14 739.654 640.633   2
  -1   9 -13 6549.17 1237.29   2
  -1   9 -12 4793.87 1051.04   2
  -1   9 -11 8181.61 1317.52   2
  -1   9 -10 18091.1 1884.93   2
  -1   9  -9 832.313 463.022   2
  -1   9  -8 20341.5 1930.63   2
  -1   9  -7 3789.53 854.290   2
  -1   9  -6 31584.8 2343.20   2
  -1   9  -5 17863.5 1709.82   2
  -1   9  -4 3935.35 815.011   2
  -1   9  -3 29570.2 2202.08   2
  -1   9  -2 539.692 436.073   2
  -1   9  -1 48023.4 2784.29   2
  -1   9   0 2203.28 626.614   2
  -1   9   1 26843.3 1806.30   1
  -1   9   1 26160.1 2015.72   2
  -1   9   2 10974.2 1338.55   2
  -1   9   2 10104.7 1136.39   1
  -1   9   3 4817.10 836.555   1
  -1   9   3 2818.96 660.410   2
  -1   9   4 37546.9 2397.40   2
  -1   9   4 33975.4 2185.35   1
  -1   9   5 3454.04 736.515   1
  -1   9   5 2824.45 728.355   2
  -1   9   6 53545.8 2897.36   1
  -1   9   7 5315.88 939.768   1
  -1   9   8 16659.7 1649.57   1
  -1   9   9 21832.4 1940.34   1
  -1   9  10 1350.30 511.934   1
  -1   9  11 33544.4 2533.67   1
  -1   9  12 44.5565 390.719   1
  -1  10 -14 12107.9 1799.08   2
  -1  10 -13 3575.81 958.455   2
  -1  10 -12 15899.8 1964.39   2
  -1  10 -11 899.006 578.765   2
  -1  10 -10 10324.9 1533.36   2
  -1  10  -9 4888.58 1074.08   2
  -1  10  -8 4734.73 1013.79   2
  -1  10  -7 10313.5 1458.93   2
  -1  10  -6 379.244 501.530   2
  -1  10  -5 39300.2 2803.16   2
  -1  10  -4 934.357 478.225   2
  -1  10  -3 24154.4 2126.10   2
  -1  10  -2 2350.72 736.368   2
  -1  10  -1 14734.8 1631.60   2
  -1  10   0 15138.2 1422.46   1
  -1  10   0 19460.5 1844.85   2
  -1  10   1 3179.51 678.286   1
  -1  10   1 3469.26 768.001   2
  -1  10   2 52555.7 2785.54   1
  -1  10   2 51026.6 3017.45   2
  -1  10   3 5602.05 957.599   1
  -1  10   3 6619.24 1082.25   2
  -1  10   4 31520.7 2204.56   1
  -1  10   4 29346.6 2245.31   2
  -1  10   5 24600.9 1987.70   1
  -1  10   5 26832.3 2144.61   2
  -1  10   6 4998.92 937.411   1
  -1  10   6 4146.00 842.457   2
  -1  10   7 30216.8 2287.22   1
  -1  10   8 1594.87 631.793   1
  -1  10   9 17722.5 1840.38   1
  -1  10  10 2762.28 767.033   1
  -1  10  11 13545.6 1695.39   1
  -1  10  12 12026.7 1627.28   1
  -1  11 -12 8518.03 1540.10   2
  -1  11 -11 5218.11 1211.84   2
  -1  11 -10 1977.82 784.827   2
  -1  11  -9 11583.6 1681.98   2
  -1  11  -8-113.221 438.649   2
  -1  11  -7 16680.8 1958.55   2
  -1  11  -6 4338.71 1032.19   2
  -1  11  -5 6649.60 1223.87   2
  -1  11  -4 15173.5 1840.00   2
  -1  11  -3 2678.84 854.244   2
  -1  11  -2 27958.0 2411.89   2
  -1  11  -1 351.179 385.814   2
  -1  11  -1 674.806 385.654   1
  -1  11   0 19201.3 1682.64   1
  -1  11   0 16052.9 1797.81   2
  -1  11   1 13006.7 1414.93   1
  -1  11   1 14936.1 1722.81   2
  -1  11   2 12463.8 1401.19   1
  -1  11   2 14208.0 1665.43   2
  -1  11   3 32254.1 2486.23   2
  -1  11   3 29201.4 2199.59   1
  -1  11   4 299.316 409.493   1
  -1  11   4 211.736 404.813   2
  -1  11   5 29156.3 2276.69   1
  -1  11   5 30372.2 2425.08   2
  -1  11   6 120.787 358.096   1
  -1  11   7 16015.5 1761.07   1
  -1  11   8 7571.96 1262.51   1
  -1  11   9 12050.9 1601.51   1
  -1  11  10 16076.6 1858.38   1
  -1  11  11 1109.95 540.043   1
  -1  11  12 12723.2 1743.00   1
  -1  12 -10 79.2447 537.871   2
  -1  12  -9 4411.53 1166.78   2
  -1  12  -8 8218.52 1494.74   2
  -1  12  -7 4400.79 1096.69   2
  -1  12  -6 14874.3 1923.15   2
  -1  12  -5 281.538 543.446   2
  -1  12  -4 19603.1 2168.59   2
  -1  12  -3 6604.88 1275.96   2
  -1  12  -2 18488.6 2073.34   2
  -1  12  -1 9362.87 1451.93   2
  -1  12   0 1026.47 547.225   2
  -1  12   0 2083.22 642.523   1
  -1  12   1 11211.0 1380.18   1
  -1  12   1 12364.7 1655.98   2
  -1  12   2 1170.46 539.900   1
  -1  12   2 55.5999 493.186   2
  -1  12   3 18614.3 1842.61   1
  -1  12   3 15874.5 1841.53   2
  -1  12   4 4403.28 952.681   2
  -1  12   4 3209.37 804.800   1
  -1  12   5 11891.4 1629.31   2
  -1  12   5 13104.5 1596.82   1
  -1  12   6 26080.2 2293.33   1
  -1  12   7 6846.61 1212.42   1
  -1  12   8 12542.7 1646.72   1
  -1  12   9 772.066 597.026   1
  -1  12  10 3290.08 894.198   1
  -1  13  -7 366.479 656.651   2
  -1  13  -6 12313.3 1891.08   2
  -1  13  -5 3079.88 1055.20   2
  -1  13  -4 1919.79 839.517   2
  -1  13  -3 16982.8 2087.14   2
  -1  13  -2 379.190 491.033   2
  -1  13  -1 6336.39 1280.05   2
  -1  13   0 1331.45 747.660   2
  -1  13   1 6221.66 1196.69   2
  -1  13   2 11255.4 1494.25   1
  -1  13   2 13397.9 1778.06   2
  -1  13   3 8592.62 1437.74   2
  -1  13   3 10316.3 1458.23   1
  -1  13   4 15772.2 1809.93   1
  -1  13   4 17045.6 2005.19   2
  -1  13   5-1124.12 636.035   2
  -1  13   5-328.672 468.969   1
  -1  13   6 9692.13 1489.74   1
  -1  13   7 482.664 490.318   1
  -1  13   8 2019.78 765.471   1
  -1  14  -3 7571.06 1459.64   2
  -1  14  -2 8272.63 1537.26   2
  -1  14  -1 4371.05 1154.16   2
  -1  14   0 15304.5 2014.92   2
  -1  14   1-115.457 708.436   2
  -1  14   2 6624.38 1309.66   2
  -1  14   3-1689.28 782.769   2
  -1  14   4 7884.58 1431.44   2
   0 -11 -15 11207.2 1732.79   6
   0 -11 -14 14858.5 1934.04   6
   0 -11 -13 15759.1 1927.13   6
   0 -11 -12 3480.63 904.718   6
   0 -11 -11 14629.0 1792.48   6
   0 -11 -10 365.295 368.323   6
   0 -11  -9 12854.4 1585.43   6
   0 -11  -8 10045.4 1351.25   6
   0 -11  -7 5118.46 978.831   6
   0 -11  -6 16740.8 1682.44   6
   0 -11  -5 2273.90 651.818   6
   0 -11  -4 30652.1 2248.10   6
   0 -11  -3 2186.33 613.888   6
   0 -11  -2 37521.4 2428.99   6
   0 -11  -1 10057.5 1237.72   6
   0 -11   0 1788.36 537.722   6
   0 -10 -16 1402.53 638.769   6
   0 -10 -15 10768.8 1625.50   6
   0 -10 -14 542.700 553.150   6
   0 -10 -13 22499.9 2259.96   6
   0 -10 -12 2671.10 867.597   6
   0 -10 -11 23807.1 2183.89   6
   0 -10 -10 11419.4 1484.78   6
   0 -10  -9 6010.15 1046.13   6
   0 -10  -8 25540.6 2071.22   6
   0 -10  -7 2803.65 727.271   6
   0 -10  -6 36658.9 2392.03   6
   0 -10  -5 6903.47 1014.71   6
   0 -10  -4 17355.2 1587.68   6
   0 -10  -3 33601.2 2196.43   6
   0 -10  -2 795.976 385.038   6
   0 -10  -1 22335.7 1749.92   6
   0 -10   0 2105.91 538.694   6
   0 -10   1 5031.45 835.567   6
   0 -10   2 9120.47 1108.29   6
   0 -10   3 2757.61 635.796   6
   0 -10   4 8802.68 1125.56   6
   0  -9 -17 17917.6 2166.46   6
   0  -9 -16 4216.60 1015.28   6
   0  -9 -15 8767.08 1479.91   6
   0  -9 -14 11799.1 1655.11   6
   0  -9 -13 8974.68 1411.77   6
   0  -9 -12 24332.4 2211.20   6
   0  -9 -11 2847.43 782.087   6
   0  -9 -10 29475.0 2299.79   6
   0  -9  -9 1393.60 527.395   6
   0  -9  -8 21969.4 1853.35   6
   0  -9  -7 23608.8 1873.86   6
   0  -9  -6 2172.23 569.983   6
   0  -9  -5 38473.1 2308.40   6
   0  -9  -4 1002.93 427.551   6
   0  -9  -3 44369.3 2401.20   6
   0  -9  -2 1049.91 336.747   6
   0  -9  -1 13910.9 1303.26   6
   0  -9   0 13286.7 1272.83   6
   0  -9   1 556.013 312.914   6
   0  -9   2 19634.3 1546.45   6
   0  -9   3 6221.51 885.514   6
   0  -9   4 24383.7 1796.76   6
   0  -9   5 17729.5 1493.04   4
   0  -9   6 22130.3 1703.53   4
   0  -9   7 42410.2 2490.00   4
   0  -9   8 8222.43 1118.00   4
   0  -9   9 30669.5 2201.87   4
   0  -9  10 356.490 382.685   4
   0  -8 -18 3183.67 961.637   6
   0  -8 -17 8667.27 1492.59   6
   0  -8 -16 22914.5 2331.02   6
   0  -8 -15 161.695 438.053   6
   0  -8 -14 20006.4 2039.10   6
   0  -8 -13 3759.85 898.854   6
   0  -8 -12 19386.5 1895.51   6
   0  -8 -11 9071.85 1267.03   6
   0  -8 -10 16706.8 1648.78   6
   0  -8  -9 26695.5 2021.26   6
   0  -8  -8 50.1280 273.248   6
   0  -8  -7 39202.1 2315.40   6
   0  -8  -6 7727.83 994.926   6
   0  -8  -5 35989.0 2107.67   6
   0  -8  -4 11785.6 1151.90   6
   0  -8  -3 14790.3 1276.04   6
   0  -8  -2 30692.3 1834.85   6
   0  -8  -1 4590.81 713.997   6
   0  -8   0 55277.7 2495.52   6
   0  -8   1 7578.29 892.441   6
   0  -8   2 30786.8 1832.10   6
   0  -8   3 25217.3 1682.48   6
   0  -8   4 4251.34 708.666   6
   0  -8   5 43321.2 2358.33   6
   0  -8   5 41861.4 2207.98   4
   0  -8   6 143.451 259.508   4
   0  -8   7 34844.1 2159.96   4
   0  -8   8 15128.3 1445.56   4
   0  -8   9 7639.49 1057.72   4
   0  -8  10 20350.6 1775.34   4
   0  -8  11 3189.68 783.481   4
   0  -8  12 27598.8 2221.98   4
   0  -8  13-641.352 435.123   4
   0  -8  14 17906.2 1889.63   4
   0  -8  15 7638.85 1308.97   4
   0  -8  16 14050.2 1794.53   4
   0  -7 -14 16884.6 1824.58   6
   0  -7 -13 17466.6 1791.28   6
   0  -7 -12 798.582 358.152   6
   0  -7 -11 33786.7 2319.29   6
   0  -7 -10 2799.72 677.031   6
   0  -7  -9 55585.0 2856.84   6
   0  -7  -8 13862.3 1336.92   6
   0  -7  -7 23209.0 1693.69   6
   0  -7  -6 22640.9 1628.22   6
   0  -7  -5 6402.02 833.496   6
   0  -7  -4 53786.6 2425.19   6
   0  -7  -3-78.0349 217.717   6
   0  -7  -2 32387.8 1762.04   6
   0  -7  -1 5788.28 732.704   6
   0  -7   0 45644.8 2107.40   6
   0  -7   1 63439.6 2534.21   6
   0  -7   2 564.162 289.907   6
   0  -7   3 88039.9 3116.55   6
   0  -7   4 16228.8 1301.52   6
   0  -7   5 17960.1 1347.10   4
   0  -7   5 18356.9 1426.78   6
   0  -7   6 42123.4 2210.96   4
   0  -7   7 9796.67 1099.33   4
   0  -7   8 32810.8 2067.01   4
   0  -7   9 139.814 285.000   4
   0  -7  10 29856.3 2110.54   4
   0  -7  11 8492.54 1176.37   4
   0  -7  12 27908.5 2181.03   4
   0  -7  13 8416.83 1257.13   4
   0  -7  14 640.560 464.001   4
   0  -7  15 19581.3 2025.44   4
   0  -7  16 225.840 382.522   4
   0  -7  17 18445.1 2095.20   4
   0  -7  18 3949.45 1047.30   4
   0  -7  19 14100.1 1948.77   4
   0  -6  -9 6419.91 907.564   6
   0  -6  -8 37225.1 2122.72   6
   0  -6  -7 221.720 238.993   6
   0  -6  -6 54701.6 2460.92   6
   0  -6  -5 10637.4 1000.69   6
   0  -6  -4 101892. 3267.19   6
   0  -6  -3 13191.6 1054.51   6
   0  -6  -2 1228.83 344.084   6
   0  -6  -1 85902.0 2798.89   6
   0  -6   0 3860.91 557.251   6
   0  -6   1 111969. 3310.32   6
   0  -6   2 53244.0 2154.48   6
   0  -6   3 63734.2 2428.91   6
   0  -6   4 29708.1 1667.74   6
   0  -6   5 706.825 315.506   4
   0  -6   6 35273.8 1904.80   4
   0  -6   7 6998.45 873.220   4
   0  -6   8 34574.3 2047.96   4
   0  -6   9 28639.8 1925.49   4
   0  -6  10 12034.1 1297.58   4
   0  -6  11 54785.3 2935.12   4
   0  -6  12 1748.50 542.929   4
   0  -6  13 14412.8 1588.78   4
   0  -6  14 3236.00 798.792   4
   0  -6  15 15149.6 1742.97   4
   0  -6  16 13237.3 1702.44   4
   0  -6  17 6337.42 1228.41   4
   0  -6  18 7638.32 1389.75   4
   0  -6  19-883.901 707.123   4
   0  -5  -8 87817.4 1990.16   3
   0  -5  -7 32077.1 868.959   3
   0  -5  -6 32057.0 1712.98   6
   0  -5  -5 83230.5 2850.58   6
   0  -5  -4 876.097 304.074   6
   0  -5  -3 93618.3 2861.47   6
   0  -5  -2 33393.2 1526.27   6
   0  -5  -1 27658.8 1354.79   6
   0  -5   0 80068.5 2484.43   6
   0  -5   1 2808.32 427.966   6
   0  -5   2 53325.8 2001.00   6
   0  -5   3 1393.66 322.048   6
   0  -5   4 95328.6 3016.78   6
   0  -5   4 92606.2 2886.61   4
   0  -5   5 16080.7 1155.17   4
   0  -5   6 38851.9 1937.45   4
   0  -5   7 62399.9 2623.29   4
   0  -5   8 3263.77 611.762   4
   0  -5   9 29162.1 1886.07   4
   0  -5  10 2319.46 558.491   4
   0  -5  11 54647.5 2858.12   4
   0  -5  12 15804.2 1563.05   4
   0  -5  13 13371.9 1508.86   4
   0  -5  14 9605.69 1316.05   4
   0  -5  15-384.796 379.948   4
   0  -5  16 16901.6 1886.16   4
   0  -5  17 3632.89 936.953   4
   0  -5  18 13627.0 1797.30   4
   0  -5  19 3128.75 936.537   4
   0  -5  20 9987.12 1667.69   4
   0  -4  -7 75008.1 1816.68   3
   0  -4  -6 59405.1 1388.31   3
   0  -4  -5 121586. 2134.72   3
   0  -4  -4 114996. 3159.84   6
   0  -4  -3 15750.8 974.238   6
   0  -4  -2 21363.7 1096.54   6
   0  -4  -1 90.4067 147.846   6
   0  -4   0 76727.8 2207.37   6
   0  -4   1 29739.6 1291.96   6
   0  -4   2 111522. 2909.32   6
   0  -4   3 26867.1 1309.02   6
   0  -4   4 68127.6 2345.34   6
   0  -4   4 69519.0 2299.53   4
   0  -4   5 54017.2 2100.15   4
   0  -4   6 2416.72 472.210   4
   0  -4   7 46922.2 2160.03   4
   0  -4   8 8847.83 948.354   4
   0  -4   9 29365.5 1846.01   4
   0  -4  10 26041.3 1812.74   4
   0  -4  11 15338.1 1453.59   4
   0  -4  12 56015.3 2954.06   4
   0  -4  13 1407.61 496.284   4
   0  -4  14 21802.9 1942.01   4
   0  -4  15 1843.92 642.958   4
   0  -4  16 9501.33 1388.36   4
   0  -4  17 14502.3 1800.17   4
   0  -4  18 2456.16 786.269   4
   0  -4  19 13403.0 1851.12   4
   0  -4  20-311.975 486.796   4
   0  -3  -3 35684.4 1390.80   6
   0  -3  -2 90812.1 2354.98   6
   0  -3  -2 96729.7 2329.98   4
   0  -3  -1 873.878 200.501   6
   0  -3   0 43180.6 1383.28   6
   0  -3   1 174558. 3607.19   6
   0  -3   2 3243.25 383.989   6
   0  -3   3 56818.0 1794.62   4
   0  -3   3 55320.6 1838.74   6
   0  -3   4 53.4339 131.728   4
   0  -3   4-12.1617 91.7409   5
   0  -3   5 94574.5 2813.25   4
   0  -3   6 786.864 273.756   4
   0  -3   7 49053.4 2144.23   4
   0  -3   8 69456.1 2747.53   4
   0  -3   9 10652.4 1064.29   4
   0  -3  10 71584.9 3052.16   4
   0  -3  11 1012.69 407.559   4
   0  -3  12 34269.3 2250.38   4
   0  -3  13 22188.5 1885.17   4
   0  -3  14 2922.18 706.523   4
   0  -3  15 35068.6 2550.86   4
   0  -3  16-78.4297 361.981   4
   0  -3  17 26237.0 2385.17   4
   0  -3  18 3770.28 977.858   4
   0  -3  19 15221.8 1958.70   4
   0  -3  20 9944.43 1648.45   4
   0  -3  21 2166.16 983.851   4
   0  -2  -3 239810. 4519.98   5
   0  -2  -3 240561. 4602.31   4
   0  -2  -2 10515.6 605.142   5
   0  -2  -2 11124.1 653.609   2
   0  -2  -2 10544.0 572.592   4
   0  -2  -1 271146. 4809.61   6
   0  -2  -1 272943. 5014.30   2
   0  -2  -1 283793. 4968.24   5
   0  -2  -1 276801. 4740.05   4
   0  -2   0 1844.48 264.534   2
   0  -2   0 1415.35 209.201   6
   0  -2   0 1480.57 227.067   5
   0  -2   1 46807.1 1307.91   6
   0  -2   1 52349.6 1380.41   5
   0  -2   1 48249.4 1369.26   2
   0  -2   2 44090.3 1227.25   5
   0  -2   2 41691.3 1321.59   6
   0  -2   3 77629.0 1747.64   5
   0  -2   3 73917.5 2028.70   4
   0  -2   4 44360.7 1606.96   4
   0  -2   5 29337.4 1372.85   4
   0  -2   6 260993. 5697.89   4
   0  -2   7 868.649 303.499   4
   0  -2   8 111246. 3562.51   4
   0  -2   9 12821.4 1174.10   4
   0  -2  10 27178.9 1795.34   4
   0  -2  11 21043.2 1644.82   4
   0  -2  12 1803.72 530.461   4
   0  -2  13 50734.8 2849.51   4
   0  -2  14 4260.18 852.680   4
   0  -2  15 37040.5 2622.82   4
   0  -2  16 20448.8 2010.03   4
   0  -2  17 5918.26 1112.98   4
   0  -2  18 9325.11 1465.86   4
   0  -2  19-56.1538 430.461   4
   0  -2  20 19959.9 2313.91   4
   0  -2  21 867.181 641.491   4
   0  -1  -8 96724.1 2192.74   5
   0  -1  -7 29372.1 994.702   5
   0  -1  -6 6330.95 415.986   5
   0  -1  -5 67817.6 1607.93   5
   0  -1  -4 7958.22 434.078   5
   0  -1  -3 58200.0 1500.99   1
   0  -1  -3 58595.3 1366.33   5
   0  -1  -3 59309.5 1635.23   4
   0  -1  -2 1400.72 202.267   4
   0  -1  -2 943.667 138.402   5
   0  -1   2 405131. 6210.93   5
   0  -1   2 389277. 6624.99   4
   0  -1   3 1199.52 213.275   4
   0  -1   4 887345. 14402.3   4
   0  -1   5 4134.99 488.338   4
   0  -1   6 114578. 3198.29   4
   0  -1   7 40410.1 1838.61   4
   0  -1   8 8965.40 887.277   4
   0  -1   9 53766.0 2426.18   4
   0  -1  10 11219.9 1124.60   4
   0  -1  11 23382.1 1720.19   4
   0  -1  12 1188.43 374.482   4
   0  -1  13 14256.4 1457.68   4
   0  -1  14 20522.4 1849.60   4
   0  -1  15 1279.99 483.709   4
   0  -1  16 72471.9 3852.26   4
   0  -1  17 2291.41 744.193   4
   0  -1  18 9894.07 1524.95   4
   0  -1  19 7997.95 1425.09   4
   0  -1  20 5576.56 1223.08   4
   0  -1  21 5989.76 1308.09   4
   0   0  -4 23236.5 829.568   1
   0   0  -3 5329.87 323.306   1
   0   0  -3 4882.05 411.193   4
   0   0   3 5088.19 415.748   4
   0   0   4 24024.6 1062.93   4
   0   0   5 714.933 213.858   4
   0   0   6 1509.85 345.929   4
   0   0   7 44093.5 1903.83   4
   0   0   8 4120.64 609.990   4
   0   0   9 47157.5 2232.86   4
   0   0  10 24513.0 1663.03   4
   0   0  11 11082.5 1202.38   4
   0   0  12 31871.6 2104.75   4
   0   0  13 90.2845 235.486   4
   0   0  14 24552.6 2015.45   4
   0   0  15 7547.04 1175.02   4
   0   0  16 35131.0 2658.08   4
   0   0  17 33495.6 2653.29   4
   0   0  18 3908.72 958.062   4
   0   0  19 19370.0 2168.74   4
   0   0  20 1360.08 662.198   4
   0   0  21 14892.6 2033.55   4
   0   1  -3 1454.16 254.783   4
   0   1  -2 403607. 6183.42   5
   0   1  -2 392006. 6599.98   4
   0   1   2 1231.29 184.038   4
   0   1   2 1355.09 168.406   5
   0   1   2 1152.05 183.624   1
   0   1   3 58741.6 1352.47   5
   0   1   3 59768.4 1529.47   1
   0   1   3 60088.7 1640.53   4
   0   1   4 7543.36 508.818   1
   0   1   4 7296.18 576.831   4
   0   1   5 64687.1 1842.13   1
   0   1   5 63836.2 2060.67   4
   0   1   6 5923.50 632.560   4
   0   1   7 25986.0 1443.71   4
   0   1   8 94021.5 3133.82   4
   0   1   9 6313.18 807.159   4
   0   1  10 88021.7 3347.29   4
   0   1  11 4044.52 724.770   4
   0   1  12 29837.6 2049.82   4
   0   1  13 23855.5 1903.23   4
   0   1  14 8864.77 1201.22   4
   0   1  15 21596.4 1956.89   4
   0   1  16 4492.93 958.420   4
   0   1  17 30800.9 2536.08   4
   0   1  18 416.595 430.592   4
   0   1  19 14460.5 1875.88   4
   0   1  20 12555.1 1796.81   4
   0   1  21 762.245 614.722   4
   0   2  -4 45105.9 1139.27   5
   0   2  -3 78521.2 1734.19   5
   0   2  -3 78070.6 2083.56   6
   0   2  -2 42672.8 1330.66   2
   0   2  -2 42886.1 1182.66   5
   0   2  -2 42253.2 1299.31   6
   0   2  -1 46630.1 1382.13   2
   0   2  -1 50563.3 1232.49   3
   0   2  -1 47036.8 1310.52   5
   0   2  -1 49267.4 1328.37   6
   0   2   0 1917.29 226.619   6
   0   2   0 1378.62 232.591   2
   0   2   0 1601.88 226.727   5
   0   2   0 1658.40 155.941   3
   0   2   1 277134. 4874.74   5
   0   2   1 264736. 4923.32   2
   0   2   1 271887. 4737.79   6
   0   2   2 10556.8 594.598   5
   0   2   2 9289.74 543.136   4
   0   2   2 9959.55 610.271   2
   0   2   3 237387. 4417.29   5
   0   2   3 241641. 4536.34   1
   0   2   3 228234. 4490.75   4
   0   2   4 175746. 3507.23   5
   0   2   4 173990. 3689.27   1
   0   2   4 166629. 3738.40   4
   0   2   5 3265.99 434.958   4
   0   2   5 3456.66 421.728   1
   0   2   6 93644.4 2593.57   1
   0   2   6 87779.4 2741.37   4
   0   2   7 524.226 263.124   4
   0   2   7-164.090 226.236   1
   0   2   8 78018.6 2512.91   1
   0   2   8 72033.0 2743.08   4
   0   2   9 36903.8 1971.36   4
   0   2  10 54578.8 2567.41   4
   0   2  11 58582.1 2802.34   4
   0   2  12 23265.5 1794.49   4
   0   2  13 25435.8 1977.59   4
   0   2  14 387.807 282.512   4
   0   2  15 16856.7 1741.31   4
   0   2  16 2347.36 714.294   4
   0   2  17 2863.62 809.025   4
   0   2  18 13322.6 1718.97   4
   0   2  19 4737.56 1102.75   4
   0   2  20 22392.7 2398.56   4
   0   2  21 5054.83 1211.79   4
   0   3  -5 96519.6 2200.47   5
   0   3  -4 45.3557 86.6576   5
   0   3  -4 147.466 140.735   2
   0   3  -3 58403.8 1656.97   5
   0   3  -3 57825.8 1887.59   2
   0   3  -2 2759.84 386.727   2
   0   3  -2 3567.32 378.881   5
   0   3  -1 190884. 3542.72   3
   0   3  -1 181948. 3973.08   2
   0   3  -1 189640. 3774.69   6
   0   3  -1 185683. 3848.83   5
   0   3   0 45721.5 1411.57   6
   0   3   0 46828.5 1155.24   3
   0   3   0 46594.3 1538.09   5
   0   3   0 41999.3 1548.53   2
   0   3   1 981.886 116.166   3
   0   3   1 1332.26 312.188   2
   0   3   1 1127.91 255.244   5
   0   3   1 1039.68 222.207   6
   0   3   2 92585.3 2439.67   5
   0   3   2 90528.5 2486.99   2
   0   3   3 36925.7 1407.50   5
   0   3   3 35790.9 1354.89   4
   0   3   3 37492.9 1484.82   2
   0   3   4 168874. 3731.03   5
   0   3   4 166007. 3826.03   1
   0   3   4 163261. 3770.80   4
   0   3   5 49206.4 1716.12   5
   0   3   5 50727.6 1870.67   1
   0   3   5 48658.6 1856.04   4
   0   3   6 125611. 3341.75   1
   0   3   6 122743. 3422.97   4
   0   3   7 60656.8 2354.50   4
   0   3   7 60454.3 2232.51   1
   0   3   8 76444.9 2846.73   4
   0   3   8 80490.6 2732.07   1
   0   3   9 59586.0 2372.03   1
   0   3   9 59014.5 2582.35   4
   0   3  10 21170.9 1407.21   1
   0   3  10 20005.7 1527.84   4
   0   3  11 20606.4 1618.66   4
   0   3  12 9988.68 1175.01   4
   0   3  13 14910.0 1519.37   4
   0   3  14 30159.2 2241.10   4
   0   3  15 6181.63 1086.37   4
   0   3  16 20458.6 1997.74   4
   0   3  17 207.186 316.269   4
   0   3  18 16522.9 1937.77   4
   0   3  19 4070.59 1035.00   4
   0   3  20 13905.4 1903.74   4
   0   3  21 22266.2 2530.09   4
   0   4  -6 3086.56 519.150   2
   0   4  -5 55388.6 2170.38   2
   0   4  -5 55438.1 1754.59   5
   0   4  -4 71962.2 2462.37   2
   0   4  -4 72535.7 2113.46   5
   0   4  -3 30067.0 1452.29   2
   0   4  -3 29315.9 1265.45   5
   0   4  -2 120246. 3244.71   2
   0   4  -2 121507. 3038.07   5
   0   4  -1 27401.7 1028.21   3
   0   4  -1 28852.5 1387.24   2
   0   4  -1 27737.4 1278.19   5
   0   4   0 80832.1 2408.08   5
   0   4   0 77366.8 2490.42   2
   0   4   0 80950.2 1834.68   3
   0   4   1 126.890 65.2647   3
   0   4   1 170.259 194.947   2
   0   4   1 164.655 169.278   5
   0   4   2 23166.2 1219.46   5
   0   4   2 22635.8 1264.25   2
   0   4   3 15581.8 992.205   5
   0   4   3 14905.5 1022.74   2
   0   4   4 120151. 3230.92   5
   0   4   4 118128. 3144.27   4
   0   4   4 117605. 3298.59   2
   0   4   5 135874. 3695.22   1
   0   4   5 142158. 3644.09   5
   0   4   5 139580. 3649.74   4
   0   4   6 65186.6 2402.64   1
   0   4   6 58531.0 2272.40   4
   0   4   7 74711.3 2684.43   1
   0   4   7 76087.1 2761.97   4
   0   4   8 94.1938 180.822   4
   0   4   8 75.7952 208.954   1
   0   4   9 50591.8 2288.17   1
   0   4   9 50208.3 2407.32   4
   0   4  10 24937.1 1628.23   1
   0   4  10 25166.6 1749.84   4
   0   4  11 7306.44 905.455   1
   0   4  11 7389.69 988.522   4
   0   4  12 63929.3 3117.43   4
   0   4  13 315.596 311.381   4
   0   4  14 35152.7 2474.38   4
   0   4  15 1804.29 626.971   4
   0   4  16 26400.3 2307.16   4
   0   4  17 17324.4 1941.63   4
   0   4  18 5253.00 1132.15   4
   0   4  19 14746.2 1930.87   4
   0   4  20 879.653 590.385   4
   0   5  -9 31358.3 1954.46   2
   0   5  -8 4193.76 707.718   2
   0   5  -7 62957.1 2654.32   2
   0   5  -6 38380.9 1969.50   2
   0   5  -5 15188.8 1184.03   2
   0   5  -4 102234. 3269.40   2
   0   5  -4 100453. 2865.97   5
   0   5  -3 1388.31 316.574   5
   0   5  -3 1556.97 389.918   2
   0   5  -2 60097.5 2333.05   2
   0   5  -2 58007.0 2129.46   5
   0   5  -1 3576.79 558.504   2
   0   5  -1 3064.75 470.625   5
   0   5   0 73907.5 2677.84   2
   0   5   0 76951.0 2566.73   5
   0   5   0 78630.8 1915.30   3
   0   5   1 29330.7 915.535   3
   0   5   1 29745.3 1518.32   5
   0   5   1 26959.7 1541.18   2
   0   5   2 28967.7 1601.44   2
   0   5   2 33095.4 1610.21   5
   0   5   2 27848.9 737.159   3
   0   5   3 94160.1 2988.75   5
   0   5   3 93031.8 3051.32   2
   0   5   4 1344.33 417.551   2
   0   5   4 1023.65 323.842   5
   0   5   5 82359.6 2854.62   1
   0   5   5 83027.0 2812.52   5
   0   5   5 82563.6 2905.06   2
   0   5   6 28699.8 1656.63   1
   0   5   6 31349.9 1681.24   4
   0   5   7 35070.1 1861.19   4
   0   5   7 39247.8 1991.64   1
   0   5   8 95785.0 3396.73   4
   0   5   8 96238.4 3385.29   1
   0   5   9 23036.6 1595.93   1
   0   5   9 21424.9 1579.24   4
   0   5  10 39661.1 2190.87   1
   0   5  10 43649.5 2380.88   4
   0   5  11 1171.79 406.629   4
   0   5  11 1148.44 421.088   1
   0   5  12 18715.4 1580.43   1
   0   5  12 18715.0 1678.30   4
   0   5  13 35501.9 2421.21   4
   0   5  14 22476.7 2001.66   4
   0   5  15 24174.1 2153.21   4
   0   5  16 954.550 532.782   4
   0   5  17 27010.0 2451.07   4
   0   5  18 1061.97 628.315   4
   0   5  19 5813.51 1246.80   4
   0   5  20 12502.6 1840.98   4
   0   6 -18 8669.86 1455.45   2
   0   6 -17 7112.02 1283.41   2
   0   6 -16 11689.5 1564.71   2
   0   6 -15 14201.4 1677.24   2
   0   6 -14 2435.05 681.158   2
   0   6 -13 17910.1 1770.20   2
   0   6 -12 2108.12 631.903   2
   0   6 -11 55533.9 2969.10   2
   0   6 -10 14320.2 1423.54   2
   0   6  -9 28283.4 1951.43   2
   0   6  -8 30628.5 1983.21   2
   0   6  -7 8263.38 999.184   2
   0   6  -6 34444.4 2001.98   2
   0   6  -5 433.269 279.450   2
   0   6  -4 32711.9 1872.49   2
   0   6  -3 71146.5 2837.24   2
   0   6  -3 72067.2 2584.82   5
   0   6  -2 54927.6 2440.76   2
   0   6  -2 54479.0 2227.53   5
   0   6  -1 119990. 3826.59   2
   0   6  -1 117246. 3538.68   5
   0   6   0 2924.40 561.062   2
   0   6   0 2835.04 507.722   5
   0   6   1 94171.4 3141.38   5
   0   6   1 93447.8 2100.86   3
   0   6   1 89483.5 3249.22   2
   0   6   2 1669.09 410.707   5
   0   6   2 1389.78 162.660   3
   0   6   2 1744.63 437.181   2
   0   6   3 13326.6 1128.43   5
   0   6   3 14334.6 1212.06   2
   0   6   4 105178. 3436.70   5
   0   6   4 96491.9 3409.95   2
   0   6   5 12866.8 1128.69   1
   0   6   5 9035.82 982.700   2
   0   6   6 54963.6 2469.15   1
   0   6   7 592.886 338.080   1
   0   6   8 40495.4 2209.22   1
   0   6   8 41345.8 2192.85   4
   0   6   9 5724.87 829.601   4
   0   6   9 5369.06 849.053   1
   0   6  10 24620.6 1820.01   4
   0   6  10 27445.3 1880.00   1
   0   6  11 13659.7 1366.53   1
   0   6  11 13759.9 1401.05   4
   0   6  12 6741.98 1050.67   4
   0   6  12 8688.39 1101.56   1
   0   6  13 57103.8 3030.94   1
   0   6  13 59487.6 3240.07   4
   0   6  14 653.170 459.119   4
   0   6  15 23639.8 2170.44   4
   0   6  16 10995.9 1534.31   4
   0   6  17 5624.53 1140.43   4
   0   6  18 15673.7 1938.95   4
   0   6  19 5270.01 1249.96   4
   0   7 -17 24895.3 2450.91   2
   0   7 -16 838.289 656.718   2
   0   7 -15 19812.2 2080.30   2
   0   7 -14 1215.69 559.598   2
   0   7 -13 8496.57 1286.66   2
   0   7 -12 31381.2 2375.92   2
   0   7 -11 9463.19 1261.45   2
   0   7 -10 34474.4 2355.35   2
   0   7  -9 94.5604 300.247   2
   0   7  -8 34864.1 2254.72   2
   0   7  -7 10807.2 1214.55   2
   0   7  -6 46858.5 2523.51   2
   0   7  -5 16728.0 1463.01   2
   0   7  -4 16333.8 1438.33   2
   0   7  -3 94709.0 3587.39   2
   0   7  -2 583.759 412.878   2
   0   7  -1 66364.1 2935.42   2
   0   7   0 45574.9 2384.55   2
   0   7   1 6123.90 456.707   3
   0   7   1 6006.30 857.141   2
   0   7   2 36695.8 2119.93   2
   0   7   2 32683.3 947.759   3
   0   7   3 348.767 294.591   2
   0   7   4 53477.1 2596.76   2
   0   7   5 6919.00 925.556   2
   0   7   5 5786.44 836.227   1
   0   7   6 23034.6 1662.82   1
   0   7   6 23173.5 1704.38   2
   0   7   7 21901.1 1654.48   1
   0   7   8 11813.2 1250.94   1
   0   7   9 53182.9 2751.92   1
   0   7  10 1872.36 545.986   4
   0   7  10 2058.61 592.410   1
   0   7  11 34756.4 2313.56   1
   0   7  11 33329.4 2284.22   4
   0   7  12 726.677 402.734   4
   0   7  12 1094.91 514.811   1
   0   7  13 17847.7 1787.64   4
   0   7  13 16948.4 1693.74   1
   0   7  14 15901.0 1684.89   1
   0   7  14 17600.7 1836.27   4
   0   7  15 13855.2 1715.96   4
   0   7  16 20308.5 2102.22   4
   0   7  17-185.126 381.114   4
   0   7  18 15936.5 2002.37   4
   0   7  19 168.038 444.050   4
   0   8 -16 14805.0 1954.85   2
   0   8 -15 6921.29 1319.33   2
   0   8 -14 12670.4 1691.13   2
   0   8 -13-101.729 491.946   2
   0   8 -12 28171.7 2362.74   2
   0   8 -11 3286.01 773.865   2
   0   8 -10 23848.3 2077.79   2
   0   8  -9 7564.92 1169.01   2
   0   8  -8 11954.7 1409.55   2
   0   8  -7 37179.3 2437.73   2
   0   8  -6 647.366 398.729   2
   0   8  -5 46556.4 2677.32   2
   0   8  -4 6828.13 1004.26   2
   0   8  -3 28365.6 2030.41   2
   0   8  -2 29605.1 2059.97   2
   0   8  -1 7099.23 1030.84   2
   0   8   0 56541.0 2880.75   2
   0   8   1 4052.95 810.664   2
   0   8   2 25958.4 1903.59   2
   0   8   3 13588.4 1381.66   2
   0   8   4 9894.35 1168.80   2
   0   8   5 30203.9 1985.91   1
   0   8   5 34908.0 2209.11   2
   0   8   6 7457.24 1013.98   1
   0   8   6 7364.78 1014.73   2
   0   8   7 40346.4 2393.10   1
   0   8   8-287.983 291.948   1
   0   8   9 28321.7 2099.46   1
   0   8  10 14367.6 1515.89   1
   0   8  11 5251.70 957.481   1
   0   8  12 18190.1 1764.61   1
   0   8  13 4757.90 961.495   1
   0   8  14 17059.6 1818.97   1
   0   8  14 20765.2 2036.59   4
   0   8  15 289.829 325.075   4
   0   8  16 22428.7 2275.81   4
   0   8  17 10986.8 1617.73   4
   0   8  18 1683.69 748.714   4
   0   9 -15 327.488 496.104   2
   0   9 -14 10749.4 1588.88   2
   0   9 -13 5592.75 1177.41   2
   0   9 -12 5545.64 1146.96   2
   0   9 -11 14915.0 1785.50   2
   0   9 -10 171.146 429.746   2
   0   9  -9 29702.2 2431.06   2
   0   9  -8 10668.3 1429.22   2
   0   9  -7 42642.0 2796.67   2
   0   9  -6 24287.2 2057.10   2
   0   9  -5 17822.1 1749.27   2
   0   9  -4 24618.1 2029.00   2
   0   9  -3 8659.38 1239.60   2
   0   9  -2 21151.7 1868.12   2
   0   9  -1 1379.45 484.767   2
   0   9   0 11045.2 1333.75   2
   0   9   1 13951.3 1518.88   2
   0   9   2 961.937 490.628   2
   0   9   3 45533.8 2705.55   2
   0   9   4 1646.59 576.469   2
   0   9   5 33761.9 2214.01   1
   0   9   5 30567.8 2189.74   2
   0   9   6 2302.91 652.208   2
   0   9   6 2373.42 665.633   1
   0   9   7 21041.8 1823.62   1
   0   9   8 17380.3 1666.94   1
   0   9   9 1380.66 556.916   1
   0   9  10 23083.3 2016.13   1
   0   9  11 1173.51 560.007   1
   0   9  12 20799.2 2002.24   1
   0   9  13 7092.48 1226.16   1
   0   9  14 13845.5 1720.73   1
   0  10 -14 751.981 593.649   2
   0  10 -13 30718.1 2811.41   2
   0  10 -12 2682.14 921.868   2
   0  10 -11 39432.4 3060.78   2
   0  10 -10 8058.72 1407.06   2
   0  10  -9 34275.5 2749.67   2
   0  10  -8 16950.4 1914.31   2
   0  10  -7 8061.25 1289.36   2
   0  10  -6 13467.1 1647.89   2
   0  10  -5 1368.70 614.858   2
   0  10  -4 8381.95 1273.48   2
   0  10  -3 2934.22 791.984   2
   0  10  -2 8346.71 1265.63   2
   0  10  -1 5309.42 1054.18   2
   0  10   0 3872.88 911.760   2
   0  10   1 22408.7 2014.32   2
   0  10   2 658.340 437.313   2
   0  10   3 33045.0 2427.95   2
   0  10   4 15123.4 1547.42   1
   0  10   4 19943.0 1897.75   2
   0  10   5 5061.42 962.462   2
   0  10   5 7137.07 1092.23   1
   0  10   6 31649.2 2300.84   1
   0  10   6 31100.3 2382.08   2
   0  10   7 2255.89 668.477   1
   0  10   8 21987.8 1992.63   1
   0  10   9 4956.93 985.781   1
   0  10  10 10723.8 1467.15   1
   0  10  11 16839.5 1842.51   1
   0  10  12 2232.56 739.190   1
   0  10  13 16000.9 1882.60   1
   0  10  14 762.102 475.331   1
   0  11 -12 10841.4 1772.69   2
   0  11 -11 9081.51 1570.38   2
   0  11 -10 7277.28 1409.65   2
   0  11  -9 1245.47 678.618   2
   0  11  -8 8915.35 1480.05   2
   0  11  -7 6063.36 1207.16   2
   0  11  -6 10112.1 1572.64   2
   0  11  -5 8096.14 1398.85   2
   0  11  -4 1029.18 591.514   2
   0  11  -3 17839.8 1981.26   2
   0  11  -2 2741.15 801.706   2
   0  11  -1 13921.7 1712.00   2
   0  11   0 2183.50 759.268   2
   0  11   1 11266.2 1516.89   2
   0  11   2 38503.0 2781.16   2
   0  11   3 3727.00 851.275   1
   0  11   3 3156.47 847.159   2
   0  11   4 33363.6 2580.84   2
   0  11   4 28017.8 2214.46   1
   0  11   5 1200.64 551.234   2
   0  11   5 2792.31 810.225   1
   0  11   6 17100.8 1857.73   2
   0  11   6 19155.5 1891.92   1
   0  11   7 6889.26 1156.03   1
   0  11   8 11947.5 1536.45   1
   0  11   9 12741.5 1622.35   1
   0  11  10 729.854 461.230   1
   0  11  11 12199.4 1651.23   1
   0  11  12 2558.80 823.409   1
   0  11  13 15808.0 1948.53   1
   0  12 -10 9490.44 1675.17   2
   0  12  -9 1918.93 748.977   2
   0  12  -8 5647.90 1277.33   2
   0  12  -7 6344.29 1300.08   2
   0  12  -6 2801.03 919.227   2
   0  12  -5 14000.5 1887.77   2
   0  12  -4 1468.29 814.845   2
   0  12  -3 17676.1 2072.98   2
   0  12  -2 28098.7 2600.97   2
   0  12  -1 9031.91 1498.69   2
   0  12   0 11967.3 1705.36   2
   0  12   1-400.405 609.185   2
   0  12   2 17889.4 1805.24   1
   0  12   2 24087.8 2300.95   2
   0  12   3 246.078 431.946   1
   0  12   3 398.752 427.689   2
   0  12   4 6573.50 1238.56   2
   0  12   4 8580.06 1283.70   1
   0  12   5 7660.21 1258.98   1
   0  12   5 7498.99 1318.55   2
   0  12   6 527.793 432.886   2
   0  12   6 1660.96 683.490   1
   0  12   7 9234.92 1441.96   1
   0  12   8 529.935 539.561   1
   0  12   9 11858.5 1612.13   1
   0  12  10 7107.48 1320.96   1
   0  12  11 10890.5 1634.40   1
   0  13  -7 10952.7 1825.16   2
   0  13  -6 5602.40 1339.97   2
   0  13  -5 13375.6 1951.23   2
   0  13  -4 14569.3 1997.28   2
   0  13  -3 945.233 772.659   2
   0  13  -2 21653.2 2389.39   2
   0  13  -1-114.750 489.789   2
   0  13   0 4249.31 1119.43   2
   0  13   1 1780.76 644.039   1
   0  13   1 1041.24 574.962   2
   0  13   2 3721.65 896.698   1
   0  13   2 4236.41 1030.60   2
   0  13   3 7021.95 1242.46   1
   0  13   3 8487.77 1401.96   2
   0  13   4 183.066 387.915   2
   0  13   4 749.781 582.923   1
   0  13   5 8684.08 1473.95   2
   0  13   5 9919.70 1498.19   1
   0  13   6 5552.07 1221.71   2
   0  13   6 6373.32 1237.89   1
   0  13   7 6455.81 1257.20   1
   0  13   8 13224.4 1768.86   1
   0  14  -2 7051.07 1488.50   2
   0  14  -1 8060.30 1519.68   2
   0  14   0 24.0385 639.532   2
   0  14   1 8327.07 1515.35   2
   0  14   2 2695.73 798.357   2
   0  14   3 8544.52 1531.68   2
   0  14   3 7050.81 1243.29   1
   0  14   4 933.688 635.651   2
   0  14   4 2028.63 743.715   1
   0  14   5 3887.17 972.146   1
   1 -12 -10 2989.27 909.910   6
   1 -12  -9 998.343 621.762   6
   1 -12  -8 11529.7 1603.71   6
   1 -12  -7 5669.60 1138.29   6
   1 -12  -6 30906.2 2563.83   6
   1 -11 -14 4603.83 1155.95   6
   1 -11 -13-5.17347 338.235   6
   1 -11 -12 14258.5 1884.46   6
   1 -11 -11 393.706 403.356   6
   1 -11 -10 19818.3 2104.64   6
   1 -11  -9 10698.9 1522.66   6
   1 -11  -8 7572.27 1263.94   6
   1 -11  -7 14617.7 1704.50   6
   1 -11  -6 674.069 459.638   6
   1 -11  -5 30095.3 2391.46   6
   1 -11  -4 1325.48 609.724   6
   1 -11  -3 33532.1 2478.73   6
   1 -11  -2 12765.6 1513.83   6
   1 -11  -1 15897.3 1685.87   6
   1 -11   0 20355.5 1862.84   6
   1 -11   1-418.516 409.921   6
   1 -11   2 27074.7 2158.56   6
   1 -11   3 2318.47 664.244   6
   1 -11   4 16438.2 1726.98   6
   1 -11   5 6366.18 1088.16   6
   1 -10 -15 1449.11 730.310   6
   1 -10 -14 14894.8 1957.69   6
   1 -10 -13 8960.78 1472.62   6
   1 -10 -12 14515.3 1828.70   6
   1 -10 -11 15979.3 1861.28   6
   1 -10 -10 2501.56 785.365   6
   1 -10  -9 17766.8 1874.34   6
   1 -10  -8 472.315 338.219   6
   1 -10  -7 31062.2 2375.96   6
   1 -10  -6 4054.47 883.633   6
   1 -10  -5 28617.1 2206.00   6
   1 -10  -4 33275.9 2361.47   6
   1 -10  -3 8542.13 1188.87   6
   1 -10  -2 49335.0 2859.44   6
   1 -10  -1 1933.14 554.727   6
   1 -10   0 15139.2 1528.61   6
   1 -10   1 13935.0 1467.47   6
   1 -10   2 2121.87 643.765   6
   1 -10   3 23573.5 1933.65   6
   1 -10   4 477.671 304.308   6
   1 -10   5 32685.9 2364.10   6
   1 -10   6 305.698 275.922   4
   1 -10   6 561.466 288.444   6
   1 -10   7 10882.9 1374.42   4
   1 -10   8 2945.14 770.400   4
   1  -9 -16 9708.02 1618.96   6
   1  -9 -15 13034.4 1835.03   6
   1  -9 -14 3337.45 934.028   6
   1  -9 -13 18582.6 2062.90   6
   1  -9 -12-422.086 495.910   6
   1  -9 -11 37062.6 2772.53   6
   1  -9 -10 1542.05 560.022   6
   1  -9  -9 24113.1 2098.53   6
   1  -9  -8 15446.7 1651.06   6
   1  -9  -7 8162.01 1155.49   6
   1  -9  -6 60248.2 3151.41   6
   1  -9  -5 3642.97 800.676   6
   1  -9  -4 40836.3 2463.18   6
   1  -9  -3 4596.38 863.821   6
   1  -9  -2 13936.7 1410.01   6
   1  -9  -1 25946.2 1921.28   6
   1  -9   0 2741.94 629.118   6
   1  -9   1 46348.8 2581.08   6
   1  -9   2 402.464 323.354   6
   1  -9   3 26124.1 1934.02   6
   1  -9   4 2594.91 611.336   6
   1  -9   5 14943.0 1515.42   6
   1  -9   6 28629.7 2162.11   6
   1  -9   6 26152.9 1982.11   4
   1  -9   7 1815.40 577.182   4
   1  -9   8 20213.4 1850.43   4
   1  -9   9 1055.09 513.841   4
   1  -9  10 18841.5 1850.30   4
   1  -9  11 6999.19 1176.29   4
   1  -9  12 5833.86 1124.85   4
   1  -9  13 8127.16 1327.67   4
   1  -9  14 777.319 415.823   4
   1  -8 -17 11565.7 1760.39   6
   1  -8 -16 3175.38 924.261   6
   1  -8 -15 22272.4 2306.53   6
   1  -8 -14 1649.79 705.953   6
   1  -8 -13 20125.7 2088.72   6
   1  -8 -12 5759.46 1085.75   6
   1  -8 -11 5420.28 1049.64   6
   1  -8 -10 58189.6 3294.87   6
   1  -8  -9-75.3223 257.125   6
   1  -8  -8 51323.7 2910.98   6
   1  -8  -7 8235.52 1120.84   6
   1  -8  -6 20540.4 1727.54   6
   1  -8  -5 17913.2 1576.05   6
   1  -8  -4 2221.57 563.504   6
   1  -8  -3 26114.7 1831.99   6
   1  -8  -2 1994.32 525.478   6
   1  -8  -1 58118.9 2775.13   6
   1  -8   0 1316.24 412.690   6
   1  -8   1 40879.8 2289.52   6
   1  -8   2 27264.0 1846.85   6
   1  -8   3 10037.5 1130.29   6
   1  -8   4 41118.3 2356.29   6
   1  -8   5 494.443 304.876   6
   1  -8   6 39742.4 2432.22   6
   1  -8   6 40440.0 2358.25   4
   1  -8   7 11441.7 1276.25   4
   1  -8   8 12474.6 1379.57   4
   1  -8   9 9674.52 1276.54   4
   1  -8  10 273.734 357.989   4
   1  -8  11 28463.5 2286.11   4
   1  -8  12 399.364 283.079   4
   1  -8  13 10108.1 1470.61   4
   1  -8  14 3624.37 923.026   4
   1  -8  15 7005.94 1286.18   4
   1  -8  16 14353.8 1870.51   4
   1  -8  17 1859.49 776.423   4
   1  -8  18 11623.3 1800.71   4
   1  -7 -18-81.7538 446.636   6
   1  -7 -17 12228.1 1794.95   6
   1  -7 -16 2190.42 798.853   6
   1  -7 -15 7125.58 1266.74   6
   1  -7 -14 33133.8 2660.53   6
   1  -7 -13 1767.97 643.382   6
   1  -7 -12 48371.0 3044.23   6
   1  -7 -11 2483.92 729.574   6
   1  -7 -10 45175.1 2763.40   6
   1  -7  -9 26608.0 2029.54   6
   1  -7  -8 12439.6 1372.94   6
   1  -7  -7 13365.3 1373.03   6
   1  -7  -6 878.773 401.239   6
   1  -7  -5 62828.1 2863.63   6
   1  -7  -4 2111.70 586.183   6
   1  -7  -3 25833.9 1710.42   6
   1  -7  -2 4601.23 712.380   6
   1  -7  -1 8958.07 991.092   6
   1  -7   0 57895.9 2605.69   6
   1  -7   1 6596.13 856.448   6
   1  -7   2 103221. 3620.94   6
   1  -7   3 1722.10 445.230   6
   1  -7   4 40040.0 2194.26   6
   1  -7   5 15681.7 1382.19   6
   1  -7   6 1357.52 459.446   4
   1  -7   6 1381.69 466.183   6
   1  -7   7 51534.0 2656.94   4
   1  -7   8 1932.49 537.300   4
   1  -7   9 40000.1 2491.40   4
   1  -7  10 11017.8 1335.41   4
   1  -7  11 29601.2 2282.08   4
   1  -7  12 6305.96 1083.17   4
   1  -7  13 9411.31 1360.19   4
   1  -7  14 10644.6 1475.97   4
   1  -7  15 1464.16 623.778   4
   1  -7  16 20462.9 2170.82   4
   1  -7  17 3966.56 1000.26   4
   1  -7  18 11610.5 1712.58   4
   1  -7  19 9893.14 1682.92   4
   1  -6 -12 26541.4 2153.94   6
   1  -6 -11 3841.34 822.091   6
   1  -6 -10 999.149 481.223   6
   1  -6  -9 71713.5 3279.78   6
   1  -6  -8 777.487 391.022   6
   1  -6  -7 57634.2 2771.72   6
   1  -6  -6 5975.00 832.603   6
   1  -6  -5 17323.3 1389.21   6
   1  -6  -4 13075.9 1154.82   6
   1  -6  -3 8658.56 928.425   6
   1  -6  -2 68757.5 2702.99   6
   1  -6  -1 3024.16 533.301   6
   1  -6   0 89031.7 3109.93   6
   1  -6   1 32342.7 1776.19   6
   1  -6   2 45093.2 2127.36   6
   1  -6   3 54553.3 2390.27   6
   1  -6   4 9705.90 999.435   6
   1  -6   5 46988.2 2344.84   6
   1  -6   6 1969.49 517.478   6
   1  -6   6 2516.72 547.800   4
   1  -6   7 43318.5 2350.28   4
   1  -6   8 16444.4 1473.68   4
   1  -6   9 28535.3 2017.77   4
   1  -6  10 53980.1 2915.92   4
   1  -6  11-41.6027 297.109   4
   1  -6  12 34304.4 2449.72   4
   1  -6  13 11.1093 322.899   4
   1  -6  14 18493.6 1921.19   4
   1  -6  15 18422.2 1958.45   4
   1  -6  16 2576.71 846.404   4
   1  -6  17 15222.7 1918.45   4
   1  -6  18 203.648 462.186   4
   1  -6  19 10341.5 1664.96   4
   1  -5  -8 17484.8 741.760   3
   1  -5  -8 20987.4 1584.86   6
   1  -5  -7 40024.2 1005.94   3
   1  -5  -7 48450.1 2355.32   6
   1  -5  -6 101775. 3533.40   6
   1  -5  -5-22.2308 192.744   6
   1  -5  -4 115698. 3594.59   6
   1  -5  -3 597.058 237.537   6
   1  -5  -2 37759.8 1808.86   6
   1  -5  -1 44769.2 1955.66   6
   1  -5   0 1420.36 359.807   6
   1  -5   1 91140.9 2979.30   6
   1  -5   2 8071.98 811.612   6
   1  -5   3 91980.2 3029.79   6
   1  -5   4 13819.1 1120.94   6
   1  -5   5 52006.6 2330.54   6
   1  -5   6 52994.9 2416.98   4
   1  -5   7 10436.5 1079.85   4
   1  -5   8 51831.3 2582.03   4
   1  -5   9 557.302 349.856   4
   1  -5  10 81606.2 3554.83   4
   1  -5  11 27927.1 2064.97   4
   1  -5  12 20112.3 1818.82   4
   1  -5  13 21377.8 1944.75   4
   1  -5  14 654.248 426.460   4
   1  -5  15 13404.1 1658.07   4
   1  -5  16 2533.52 776.675   4
   1  -5  17 11840.0 1676.02   4
   1  -5  18 6219.59 1270.14   4
   1  -5  19 5237.93 1225.71   4
   1  -5  20 6785.10 1395.05   4
   1  -4  -7 7786.98 503.083   3
   1  -4  -6 186369. 4842.51   6
   1  -4  -6 177098. 3290.59   3
   1  -4  -5 48451.5 1089.32   3
   1  -4  -5 53538.3 2217.06   6
   1  -4  -4 1273.98 332.695   6
   1  -4  -3 74566.1 2544.55   6
   1  -4  -2 47879.9 1905.57   6
   1  -4  -1 48676.9 1891.83   6
   1  -4   0 59193.4 2098.54   6
   1  -4   1 84280.0 2624.02   6
   1  -4   2 115102. 3217.29   6
   1  -4   3 63345.4 2270.17   6
   1  -4   4 97645.9 3050.92   6
   1  -4   5 1151.53 367.547   6
   1  -4   6 60553.7 2481.08   4
   1  -4   7 6666.46 840.199   4
   1  -4   8 33535.0 1967.81   4
   1  -4   9 37846.9 2190.72   4
   1  -4  10 30709.9 2039.17   4
   1  -4  11 54685.7 2882.75   4
   1  -4  12 1198.96 519.202   4
   1  -4  13 37757.4 2549.25   4
   1  -4  14 11869.5 1473.55   4
   1  -4  15 8525.93 1311.21   4
   1  -4  16 9865.13 1449.45   4
   1  -4  17 7063.35 1290.71   4
   1  -4  18 14222.9 1837.36   4
   1  -4  19-258.487 570.073   4
   1  -4  20 13251.2 1919.45   4
   1  -3  -6 1910.66 252.593   3
   1  -3  -5 119207. 2419.95   3
   1  -3  -4 44091.1 1081.69   3
   1  -3  -4 45434.4 1827.14   6
   1  -3  -3 145817. 3635.29   6
   1  -3  -2 138160. 3397.12   6
   1  -3  -1 30483.3 1328.63   6
   1  -3   0 91031.1 2492.30   6
   1  -3   1 38627.1 1519.55   6
   1  -3   2 35757.9 1479.13   6
   1  -3   3 9414.88 757.348   6
   1  -3   4 67684.1 2323.49   6
   1  -3   5 70197.3 2459.37   4
   1  -3   6 24488.3 974.715   5
   1  -3   6 23346.6 1423.01   4
   1  -3   7 98621.0 2269.75   5
   1  -3   7 93134.3 3253.06   4
   1  -3   8 4846.40 710.959   4
   1  -3   9 46533.3 2383.89   4
   1  -3  10 1285.95 445.197   4
   1  -3  11 24912.0 1872.56   4
   1  -3  12 13342.5 1411.98   4
   1  -3  13 17369.8 1694.87   4
   1  -3  14 69170.7 3567.46   4
   1  -3  15 181.222 364.481   4
   1  -3  16 37744.0 2782.45   4
   1  -3  17 60.9127 327.641   4
   1  -3  18 20406.5 2199.66   4
   1  -3  19 7075.13 1308.02   4
   1  -3  20 4806.64 1186.31   4
   1  -3  21 16118.2 2154.36   4
   1  -2  -5 57888.2 1585.84   3
   1  -2  -4 8544.77 474.518   3
   1  -2  -3 114550. 2199.77   3
   1  -2  -2 300636. 4865.85   3
   1  -2  -2 298222. 5692.84   6
   1  -2  -2 311794. 5479.00   2
   1  -2  -1 78080.3 2115.54   6
   1  -2  -1 82374.1 1953.68   2
   1  -2   0 118194. 2448.05   2
   1  -2   0 116663. 2703.58   6
   1  -2   1 3327.43 448.722   6
   1  -2   1 2264.43 264.238   2
   1  -2   2 13998.9 797.793   6
   1  -2   3 29316.8 1260.98   6
   1  -2   4 16567.3 686.108   5
   1  -2   4 16805.4 1006.36   6
   1  -2   4 17320.0 1010.86   4
   1  -2   5 116548. 2353.79   5
   1  -2   5 114063. 3198.80   4
   1  -2   6 5344.88 338.533   5
   1  -2   6 5583.07 674.079   4
   1  -2   7 11363.9 472.421   5
   1  -2   7 10198.1 950.234   4
   1  -2   8 104068. 3483.17   4
   1  -2   9 18077.3 1409.01   4
   1  -2  10 94688.5 3587.85   4
   1  -2  11 13423.1 1335.03   4
   1  -2  12 86240.9 3688.64   4
   1  -2  13 11556.2 1346.87   4
   1  -2  14 87285.0 4005.16   4
   1  -2  15 17742.9 1823.11   4
   1  -2  16 23546.5 2170.62   4
   1  -2  17 16696.5 1890.58   4
   1  -2  18 1696.44 684.799   4
   1  -2  19 11205.6 1676.15   4
   1  -2  20 1758.88 792.953   4
   1  -2  21 6383.32 1358.13   4
   1  -1  -4 38709.6 1222.17   3
   1  -1  -3 40069.8 1131.23   3
   1  -1  -2 52636.0 1410.93   1
   1  -1  -2 53294.6 1529.26   4
   1  -1  -2 54044.3 1254.07   3
   1  -1  -1 121400. 2595.17   6
   1  -1  -1 124880. 2415.95   1
   1  -1  -1 121823. 2268.60   3
   1  -1  -1 129195. 2305.90   2
   1  -1   0 48900.9 1326.44   6
   1  -1   0 49367.8 1099.66   1
   1  -1   1 110329. 2368.24   6
   1  -1   2 33797.9 1144.02   6
   1  -1   3 7197.60 557.229   4
   1  -1   3 6600.86 527.883   6
   1  -1   4 214778. 4510.80   4
   1  -1   5 5809.58 610.386   4
   1  -1   6 334983. 6850.85   4
   1  -1   7 1046.63 342.824   4
   1  -1   8 463967. 9356.72   4
   1  -1   9 31268.4 1833.10   4
   1  -1  10 182611. 5242.59   4
   1  -1  11 229.322 211.930   4
   1  -1  12 34239.7 2218.55   4
   1  -1  13 4261.58 827.769   4
   1  -1  14 11196.3 1354.94   4
   1  -1  15 41742.4 2771.82   4
   1  -1  16 673.834 475.485   4
   1  -1  17 23588.8 2249.74   4
   1  -1  18 9319.12 1438.65   4
   1  -1  19 2263.43 817.568   4
   1  -1  20 9934.01 1634.27   4
   1  -1  21 629.870 562.207   4
   1   0 -11 28426.0 876.937   5
   1   0 -10 49144.8 1277.40   5
   1   0  -9 2930.29 263.053   5
   1   0  -8 125907. 2479.63   5
   1   0  -3 12279.3 625.771   3
   1   0  -3 11763.5 677.107   4
   1   0  -2 35499.8 1027.65   3
   1   0  -2 33942.1 1068.03   4
   1   0  -1 199665. 3452.22   3
   1   0  -1 195705. 3446.24   4
   1   0   2 243323. 4297.87   4
   1   0   3 1184.74 136.517   1
   1   0   3 1207.80 237.762   4
   1   0   4 544766. 8488.06   1
   1   0   4 528784. 9243.52   4
   1   0   5 11961.9 556.107   1
   1   0   5 10758.1 786.513   4
   1   0   6 288916. 6035.36   4
   1   0   7 1546.73 371.193   4
   1   0   7 1744.47 150.625   5
   1   0   8 61718.8 2470.59   4
   1   0   9 54004.9 2411.28   4
   1   0  10 29023.3 1832.83   4
   1   0  11 53210.0 2648.60   4
   1   0  12 103.683 364.981   4
   1   0  13 34374.9 2290.55   4
   1   0  14 9498.87 1233.14   4
   1   0  15 17211.7 1756.66   4
   1   0  16 15250.1 1719.63   4
   1   0  17 11671.2 1574.22   4
   1   0  18 32178.8 2689.00   4
   1   0  19 6.47109 384.477   4
   1   0  20 19068.0 2216.94   4
   1   0  21 6355.89 1368.70   4
   1   1  -3 235897. 4446.25   4
   1   1  -2 33168.7 1080.55   3
   1   1  -2 32698.9 992.295   4
   1   1  -1 7297.48 409.796   2
   1   1  -1 7219.53 422.999   3
   1   1  -1 7546.42 326.035   4
   1   1   0 273658. 4588.08   2
   1   1   1 33344.4 953.531   2
   1   1   2 292848. 4977.13   4
   1   1   2 304542. 5089.80   2
   1   1   3 4645.14 386.135   4
   1   1   4 36472.8 1326.47   4
   1   1   5 55151.3 1595.54   1
   1   1   5 58513.4 1455.17   5
   1   1   5 54815.2 1864.42   4
   1   1   6 12630.5 593.798   5
   1   1   6 11122.9 679.970   1
   1   1   6 11330.0 856.419   4
   1   1   7 166831. 3642.02   1
   1   1   7 167681. 3193.22   5
   1   1   7 159709. 4163.67   4
   1   1   8 5401.58 385.292   5
   1   1   8 4866.57 675.008   4
   1   1   8 4525.18 493.276   1
   1   1   9 127660. 3940.76   4
   1   1  10 12187.5 1159.14   4
   1   1  11 65114.1 2922.19   4
   1   1  12 23591.9 1799.67   4
   1   1  13 16567.9 1574.85   4
   1   1  14 40961.6 2630.81   4
   1   1  15-186.020 338.690   4
   1   1  16 19827.7 1949.68   4
   1   1  17 2208.96 752.118   4
   1   1  18 36065.1 2875.32   4
   1   1  19 18315.6 2116.89   4
   1   1  20 9012.48 1551.39   4
   1   1  21 8374.21 1565.22   4
   1   2  -8 37987.6 950.026   5
   1   2  -3 3012.79 332.715   4
   1   2  -2 178217. 3686.38   2
   1   2  -2 183269. 3375.50   4
   1   2  -1 16721.4 801.238   2
   1   2  -1 16264.3 720.358   3
   1   2  -1 16938.3 568.980   6
   1   2   0 19872.3 872.974   2
   1   2   0 20935.6 755.070   3
   1   2   1 449.490 172.296   2
   1   2   1 821.611 152.634   3
   1   2   2 10914.5 687.341   2
   1   2   2 9581.83 463.138   4
   1   2   3 175574. 3511.16   4
   1   2   3 184937. 3683.18   5
   1   2   3 185801. 3775.32   2
   1   2   4 23212.2 990.632   5
   1   2   4 23075.3 1019.55   4
   1   2   5 102625. 2489.35   5
   1   2   5 102191. 2708.56   4
   1   2   6 2405.42 413.326   4
   1   2   6 2071.29 297.803   5
   1   2   6 2813.21 407.964   1
   1   2   7 159213. 3395.52   5
   1   2   7 156770. 3709.50   1
   1   2   7 151060. 4023.60   4
   1   2   8 26434.5 1102.44   5
   1   2   8 25492.0 1507.82   4
   1   2   8 25370.1 1298.24   1
   1   2   9 43813.4 1476.35   5
   1   2   9 43089.9 1803.82   1
   1   2   9 42635.4 2119.19   4
   1   2  10 97139.0 3012.17   1
   1   2  10 95827.4 3474.68   4
   1   2  11 950.891 404.717   4
   1   2  12 37199.6 2274.84   4
   1   2  13 6038.27 946.700   4
   1   2  14 71852.3 3501.10   4
   1   2  15 16351.5 1695.30   4
   1   2  16 20034.7 1970.33   4
   1   2  17 10501.5 1500.34   4
   1   2  18 7545.45 1306.21   4
   1   2  19 7373.49 1323.94   4
   1   2  20 283.285 372.058   4
   1   2  21 13600.7 1955.76   4
   1   3  -9 127991. 2432.77   5
   1   3  -8 32581.9 1015.45   5
   1   3  -7 30813.9 1052.10   5
   1   3  -6 199706. 3889.40   5
   1   3  -5 15739.7 786.150   5
   1   3  -4 50413.4 1555.08   5
   1   3  -4 48278.9 1841.21   2
   1   3  -3 11671.4 816.894   2
   1   3  -3 12679.5 741.251   6
   1   3  -3 12505.4 728.687   5
   1   3  -2 79539.2 1936.82   6
   1   3  -2 77047.7 2276.32   2
   1   3  -2 78566.8 2124.29   5
   1   3  -1 15325.7 653.566   6
   1   3  -1 15557.5 761.065   3
   1   3  -1 14428.9 817.680   5
   1   3  -1 15900.4 921.390   2
   1   3   0 32397.3 929.444   6
   1   3   0 31739.9 1050.86   3
   1   3   0 30636.2 1320.32   2
   1   3   0 31122.9 1266.30   5
   1   3   1 36440.3 1068.36   3
   1   3   1 32351.1 1404.46   2
   1   3   1 38396.5 1425.24   5
   1   3   2 12381.5 796.787   5
   1   3   2 11598.7 815.809   2
   1   3   2 12019.6 536.765   3
   1   3   2 11482.9 563.762   4
   1   3   3 64210.8 1993.05   5
   1   3   3 61691.0 1687.75   4
   1   3   3 60178.4 2019.24   2
   1   3   4 63425.4 2004.25   5
   1   3   4 60823.2 1846.46   4
   1   3   4 61501.6 2070.41   2
   1   3   5 102656. 2720.33   5
   1   3   5 96250.4 2667.01   4
   1   3   6 74937.9 2251.21   5
   1   3   6 70265.6 2346.87   4
   1   3   7 55035.3 1889.98   5
   1   3   7 50502.7 1986.35   1
   1   3   7 52171.1 2104.28   4
   1   3   8 79850.4 2399.13   5
   1   3   8 78024.3 2650.72   1
   1   3   8 79918.7 2853.50   4
   1   3   9 5057.80 545.343   5
   1   3   9 4842.19 717.483   4
   1   3   9 5052.19 641.149   1
   1   3  10 55597.1 2323.73   1
   1   3  10 56616.0 2590.69   4
   1   3  11 27589.5 1630.21   1
   1   3  11 28180.1 1881.58   4
   1   3  12 24133.0 1588.54   1
   1   3  12 25548.0 1865.73   4
   1   3  13 44549.9 2629.09   4
   1   3  14 24528.0 1999.67   4
   1   3  15 15090.5 1623.32   4
   1   3  16 879.139 530.247   4
   1   3  17 15638.4 1785.75   4
   1   3  18 5388.67 1135.40   4
   1   3  19 15914.4 1961.96   4
   1   3  20 12500.3 1808.32   4
   1   3  21 960.875 532.731   4
   1   4  -9 8026.76 519.783   5
   1   4  -8 39236.1 1339.11   5
   1   4  -7 163.256 135.517   5
   1   4  -6 59794.8 2403.63   2
   1   4  -6 58867.8 1842.50   5
   1   4  -5 31318.0 1623.21   2
   1   4  -5 31851.0 1325.14   5
   1   4  -4 28031.0 1476.01   2
   1   4  -4 28393.9 1269.35   5
   1   4  -3 134673. 3624.85   2
   1   4  -3 133548. 3291.45   5
   1   4  -2 23327.5 1028.13   6
   1   4  -2 21527.9 1247.33   2
   1   4  -2 22299.3 1158.34   5
   1   4  -1 65425.8 2182.49   5
   1   4  -1 71025.1 1838.39   6
   1   4  -1 69326.1 2344.57   2
   1   4   0 177.244 180.875   2
   1   4   0 5.28037 102.950   6
   1   4   0 173.381 168.141   5
   1   4   0 44.9757 97.2421   3
   1   4   1 74004.9 2478.64   2
   1   4   1 72620.4 1847.27   6
   1   4   1 75553.4 1813.06   3
   1   4   1 72982.5 2344.62   5
   1   4   2 36572.5 1588.51   5
   1   4   2 32553.7 1586.99   2
   1   4   2 36207.8 1071.25   3
   1   4   3 29559.6 1440.11   5
   1   4   3 30585.9 1184.08   4
   1   4   3 30349.3 1523.84   2
   1   4   4 150194. 3799.44   5
   1   4   4 152683. 3463.06   4
   1   4   4 146378. 3883.43   2
   1   4   5 16956.0 1085.57   5
   1   4   5 16492.1 998.463   4
   1   4   5 18815.9 1216.63   2
   1   4   6 36047.5 1642.40   5
   1   4   6 35592.3 1615.06   4
   1   4   7 2120.85 431.427   4
   1   4   7 1586.55 356.169   5
   1   4   7 1684.04 438.338   1
   1   4   8 42986.3 1834.07   5
   1   4   8 44097.9 2018.39   1
   1   4   8 38464.7 1915.55   4
   1   4   9 19813.2 1231.53   5
   1   4   9 20183.5 1380.15   1
   1   4   9 20230.3 1433.31   4
   1   4  10 68212.0 2421.19   5
   1   4  10 64716.6 2815.63   4
   1   4  10 62561.9 2618.27   1
   1   4  11 20580.4 1481.65   1
   1   4  11 21352.7 1636.26   4
   1   4  12 189.882 300.632   4
   1   4  12 245.390 222.654   1
   1   4  13 44592.1 2377.47   1
   1   4  13 45957.8 2669.79   4
   1   4  14 9349.19 1237.18   4
   1   4  15 41873.3 2750.31   4
   1   4  16 12800.9 1572.61   4
   1   4  17 24831.5 2278.65   4
   1   4  18 36775.8 2884.94   4
   1   4  19 316.685 396.649   4
   1   4  20 13485.0 1877.08   4
   1   4  21 8738.29 1569.83   4
   1   5 -10 24273.5 1800.50   2
   1   5  -9 2654.31 587.326   2
   1   5  -8 25224.9 1732.25   2
   1   5  -8 24403.3 1173.92   5
   1   5  -7 33752.7 1924.12   2
   1   5  -7 31861.5 1405.79   5
   1   5  -6 52865.3 2374.91   2
   1   5  -6 49380.1 1854.08   5
   1   5  -5 60264.3 2115.93   5
   1   5  -5 62364.1 2567.70   2
   1   5  -4 885.517 295.032   2
   1   5  -4 905.863 273.178   5
   1   5  -3 132057. 3804.56   2
   1   5  -3 122709. 3387.06   5
   1   5  -2 53473.9 2228.71   2
   1   5  -2 50629.8 2001.20   5
   1   5  -1 86683.2 2929.86   2
   1   5  -1 81363.0 2668.14   5
   1   5   0 32016.9 1700.11   2
   1   5   0 29189.7 1510.75   5
   1   5   1 55854.4 2335.21   2
   1   5   1 58469.6 1645.91   3
   1   5   1 59519.0 2252.05   5
   1   5   2 34881.5 1694.41   5
   1   5   2 33376.1 1085.16   3
   1   5   2 32172.7 1731.68   2
   1   5   3 705.974 258.000   5
   1   5   3 1048.31 431.934   2
   1   5   4 29172.2 1569.19   5
   1   5   4 27891.5 1607.28   2
   1   5   5 62425.2 2400.97   5
   1   5   5 59193.4 2102.96   4
   1   5   5 55596.5 2397.28   2
   1   5   6 76767.6 2756.03   5
   1   5   6 76273.6 2578.56   4
   1   5   6 78740.1 2931.99   2
   1   5   7 36131.8 1819.12   5
   1   5   7 36922.5 1815.52   4
   1   5   8 10183.2 1027.08   1
   1   5   8 9163.42 905.854   5
   1   5   8 10024.1 972.332   4
   1   5   9 39776.2 1945.30   5
   1   5   9 39894.4 2096.88   1
   1   5   9 38467.4 2061.00   4
   1   5  10 5215.21 786.452   4
   1   5  10 5955.27 815.364   1
   1   5  11 27384.8 1891.78   4
   1   5  11 26412.7 1794.49   1
   1   5  12 17371.8 1491.11   1
   1   5  12 20413.3 1690.93   4
   1   5  13 47018.0 2549.97   1
   1   5  13 43773.3 2630.86   4
   1   5  14 54434.0 2853.80   1
   1   5  14 58030.3 3172.46   4
   1   5  15 1548.52 560.825   4
   1   5  16 28553.8 2365.94   4
   1   5  17 5812.05 1103.13   4
   1   5  18 20123.1 2147.78   4
   1   5  19 8581.14 1455.73   4
   1   5  20 5348.08 1218.14   4
   1   6 -18 6223.03 1240.32   2
   1   6 -17 9431.63 1478.11   2
   1   6 -16 10959.3 1554.39   2
   1   6 -15 2644.40 785.439   2
   1   6 -14 6024.64 1101.58   2
   1   6 -13 6007.45 1077.79   2
   1   6 -12 10106.2 1307.52   2
   1   6 -11 36273.0 2411.43   2
   1   6 -10 41084.8 2488.91   2
   1   6  -9 29332.1 2032.76   2
   1   6  -8 1944.34 516.410   2
   1   6  -8 1929.88 367.254   5
   1   6  -7 55344.0 2688.73   2
   1   6  -7 53990.3 2081.45   5
   1   6  -6 265.058 246.215   2
   1   6  -6 67.7036 184.892   5
   1   6  -5 39415.9 2147.29   2
   1   6  -5 36112.0 1737.17   5
   1   6  -4 20093.3 1479.80   2
   1   6  -4 18991.2 1257.03   5
   1   6  -3 49251.3 2350.98   2
   1   6  -3 47669.8 2089.83   5
   1   6  -2 99828.5 3489.35   2
   1   6  -2 98870.2 3189.10   5
   1   6  -1 6186.23 739.268   5
   1   6  -1 6883.63 859.988   2
   1   6   0 79408.5 3062.32   2
   1   6   0 78440.0 2856.88   5
   1   6   1 3362.82 647.098   2
   1   6   1 3464.57 584.919   5
   1   6   2 73353.5 2783.25   5
   1   6   2 71313.6 1838.64   3
   1   6   2 70860.8 2889.78   2
   1   6   3 46319.4 2160.13   5
   1   6   3 45506.5 2258.39   2
   1   6   4 32958.7 1817.79   5
   1   6   4 32659.4 1890.17   2
   1   6   5 68150.6 2727.82   5
   1   6   5 65194.8 2775.11   2
   1   6   6 2607.39 552.114   2
   1   6   6 3248.49 585.774   5
   1   6   7 33522.2 1879.29   5
   1   6   7 32113.3 1731.03   4
   1   6   8 13507.3 1245.20   1
   1   6   8 14750.5 1235.54   5
   1   6   8 14707.0 1214.70   4
   1   6   9 24386.4 1624.50   5
   1   6   9 24000.3 1734.10   1
   1   6   9 24067.6 1652.02   4
   1   6  10 12983.2 1281.59   1
   1   6  10 14377.9 1333.55   4
   1   6  11 18223.5 1555.05   4
   1   6  11 19234.1 1603.66   1
   1   6  12 28849.2 2074.31   4
   1   6  12 31184.2 2093.56   1
   1   6  13 1831.16 601.355   4
   1   6  13 1938.20 547.472   1
   1   6  14 43130.5 2649.51   1
   1   6  14 48278.4 2924.89   4
   1   6  15 24351.6 2000.53   1
   1   6  15 24410.6 2141.42   4
   1   6  16 11296.1 1509.38   4
   1   6  17 14547.9 1784.56   4
   1   6  18 2918.93 857.368   4
   1   6  19 22165.3 2364.01   4
   1   6  20-1681.70 724.183   4
   1   7 -17 861.790 572.426   2
   1   7 -16 8359.63 1435.04   2
   1   7 -15 7071.23 1263.77   2
   1   7 -14 18108.7 1920.85   2
   1   7 -13 19960.2 1975.55   2
   1   7 -12 4092.27 877.861   2
   1   7 -11 40442.2 2683.16   2
   1   7 -10 594.709 396.050   2
   1   7  -9 23960.5 1945.10   2
   1   7  -8 12666.0 1382.65   2
   1   7  -7 18870.9 1642.97   2
   1   7  -7 19182.9 1291.33   5
   1   7  -6 27012.5 1931.85   2
   1   7  -6 23627.8 1486.57   5
   1   7  -5 25717.5 1845.56   2
   1   7  -5 25181.5 1542.25   5
   1   7  -4 57854.3 2797.73   2
   1   7  -4 56798.9 2447.13   5
   1   7  -3 1759.36 424.681   5
   1   7  -3 1590.68 485.200   2
   1   7  -2 91963.0 3272.76   5
   1   7  -2 93541.8 3623.20   2
   1   7  -1 30443.7 1968.41   2
   1   7  -1 26181.8 1676.58   5
   1   7   0 35229.0 2130.20   2
   1   7   0 34784.4 1940.58   5
   1   7   1 53009.3 2479.31   5
   1   7   1 58991.4 2771.57   2
   1   7   2 1731.62 481.393   5
   1   7   2 2176.61 567.674   2
   1   7   2 1723.83 264.901   3
   1   7   3 73407.4 3016.40   5
   1   7   3 76118.8 3205.64   2
   1   7   4 4914.14 751.095   5
   1   7   4 4183.61 743.249   2
   1   7   5 41865.2 2255.68   5
   1   7   5 43819.1 2387.81   2
   1   7   6 20122.1 1543.23   5
   1   7   6 18983.7 1569.22   2
   1   7   7 24730.5 1720.09   5
   1   7   7 27252.9 1907.10   2
   1   7   8 29627.5 1980.90   1
   1   7   8 31916.1 1978.72   5
   1   7   9 283.356 276.062   4
   1   7   9-3.54556 286.816   1
   1   7  10 32135.3 2151.60   1
   1   7  10 34696.2 2137.20   4
   1   7  11 11029.9 1246.68   4
   1   7  11 9025.18 1156.46   1
   1   7  12 19697.0 1732.55   4
   1   7  12 18862.1 1735.10   1
   1   7  13 13063.0 1447.96   1
   1   7  13 14552.7 1579.38   4
   1   7  14 6902.83 1137.09   4
   1   7  14 7963.86 1166.74   1
   1   7  15 18320.9 1814.86   1
   1   7  15 18361.5 1873.11   4
   1   7  16 285.186 311.009   4
   1   7  17 19554.8 2094.15   4
   1   7  18 4240.06 1036.91   4
   1   7  19 8760.43 1474.94   4
   1   8 -16 5368.89 1169.54   2
   1   8 -15 10589.7 1653.64   2
   1   8 -14 369.444 447.035   2
   1   8 -13 22170.3 2191.90   2
   1   8 -12 4845.85 1015.89   2
   1   8 -11 22596.9 2115.47   2
   1   8 -10 12562.5 1528.73   2
   1   8  -9 12070.5 1457.98   2
   1   8  -8 32739.8 2370.67   2
   1   8  -7-20.4202 277.838   2
   1   8  -6 29925.9 2185.66   2
   1   8  -6 31139.0 1833.51   5
   1   8  -5 2961.48 713.589   2
   1   8  -5 2689.70 532.402   5
   1   8  -4 26041.7 1712.02   5
   1   8  -4 26198.3 1999.94   2
   1   8  -3 33457.6 1980.63   5
   1   8  -3 31057.8 2163.64   2
   1   8  -2 2753.66 663.210   2
   1   8  -2 2477.91 552.831   5
   1   8  -1 80420.6 3581.04   2
   1   8  -1 85329.1 3355.38   5
   1   8   0 6594.05 901.428   5
   1   8   0 7950.38 1105.58   2
   1   8   1 87391.2 3483.80   5
   1   8   1 91278.6 3786.90   2
   1   8   2 14795.3 1366.29   5
   1   8   2 17116.3 1580.59   2
   1   8   3 46667.8 2518.68   5
   1   8   3 49799.0 2720.48   2
   1   8   4 19780.2 1602.46   5
   1   8   4 19804.0 1669.59   2
   1   8   5 32139.3 2090.95   5
   1   8   5 35827.1 2277.61   2
   1   8   6 28303.3 2045.89   2
   1   8   6 33234.1 2121.38   5
   1   8   7 606.708 453.019   2
   1   8   7 78.2884 325.211   5
   1   8   8 25144.8 1914.88   1
   1   8   9 13527.6 1441.06   1
   1   8  10 1157.47 563.506   1
   1   8  11 25821.2 2060.29   1
   1   8  12 1496.39 549.572   4
   1   8  12 1757.19 605.392   1
   1   8  13 15891.0 1695.81   1
   1   8  13 20732.6 1896.82   4
   1   8  14 283.902 364.501   4
   1   8  14 37.2656 382.049   1
   1   8  15 17899.0 1883.34   1
   1   8  15 19230.5 1961.20   4
   1   8  16 4409.10 994.303   4
   1   8  16 3755.50 870.366   1
   1   8  17 3265.39 904.322   4
   1   8  18 16875.2 2032.69   4
   1   8  19 772.111 605.263   4
   1   9 -15 14005.9 1936.64   2
   1   9 -14 6844.35 1346.47   2
   1   9 -13 9960.18 1578.55   2
   1   9 -12 9407.28 1492.79   2
   1   9 -11 9438.63 1466.46   2
   1   9 -10 15193.3 1787.98   2
   1   9  -9 1722.46 613.144   2
   1   9  -8 18939.2 1892.35   2
   1   9  -7 32637.5 2469.55   2
   1   9  -6 1411.13 574.098   2
   1   9  -5 62217.4 3376.21   2
   1   9  -4 3786.20 807.483   2
   1   9  -4 3550.17 671.887   5
   1   9  -3 104128. 4367.74   2
   1   9  -3 95429.7 3746.63   5
   1   9  -2 2066.39 662.721   2
   1   9  -2 2038.80 543.936   5
   1   9  -1 68914.0 3182.13   5
   1   9  -1 71218.4 3555.02   2
   1   9   0 3385.04 790.250   2
   1   9   0 3818.60 759.434   5
   1   9   1 20506.6 1701.38   5
   1   9   1 19095.4 1778.16   2
   1   9   2 28634.7 2041.58   5
   1   9   2 33280.5 2339.99   2
   1   9   3 2446.48 654.648   5
   1   9   3 2869.48 743.746   2
   1   9   4 32972.9 2214.50   5
   1   9   4 28404.9 2163.24   2
   1   9   5 1113.02 470.983   5
   1   9   5 2710.44 711.964   2
   1   9   6 22646.1 1922.88   2
   1   9   7 12524.8 1418.49   1
   1   9   7 15524.6 1613.36   2
   1   9   8 2884.23 749.462   1
   1   9   9 13745.5 1511.61   1
   1   9  10 1925.48 701.132   1
   1   9  11 17492.5 1798.60   1
   1   9  12 11206.8 1456.37   1
   1   9  13 9574.86 1374.65   1
   1   9  14 10249.1 1470.97   1
   1   9  15 2043.64 696.091   1
   1   9  16 8929.08 1392.75   1
   1   9  17 576.625 592.097   4
   1   9  18 18505.5 2168.84   4
   1  10 -13 1292.61 731.127   2
   1  10 -12 15596.0 1986.42   2
   1  10 -11 5660.15 1252.71   2
   1  10 -10 3644.93 1039.02   2
   1  10  -9 17023.2 1945.98   2
   1  10  -8 606.455 581.436   2
   1  10  -7 61141.7 3647.98   2
   1  10  -6 7787.05 1287.31   2
   1  10  -5 49751.2 3219.02   2
   1  10  -4 11278.8 1506.10   2
   1  10  -3 12620.3 1585.19   2
   1  10  -2 11270.6 1493.66   2
   1  10  -1 12133.8 1547.31   2
   1  10   0 13761.2 1608.64   2
   1  10   1 851.813 527.808   2
   1  10   2 36150.3 2614.13   2
   1  10   3 10533.1 1385.77   2
   1  10   4 7223.74 1187.34   2
   1  10   5 15062.2 1658.18   2
   1  10   6 2359.92 689.155   2
   1  10   7 17302.0 1733.45   1
   1  10   7 18040.5 1848.69   2
   1  10   8 188.796 349.646   1
   1  10   9 17195.4 1788.79   1
   1  10  10 15393.5 1747.55   1
   1  10  11 4863.55 1003.40   1
   1  10  12 17108.5 1896.37   1
   1  10  13-51.2083 413.203   1
   1  10  14 15877.1 1883.69   1
   1  10  15 130.233 392.576   1
   1  11 -11 20631.0 2391.14   2
   1  11 -10 262.491 453.987   2
   1  11  -9 20136.1 2257.04   2
   1  11  -8 4590.49 1103.32   2
   1  11  -7 13373.0 1811.70   2
   1  11  -6 11072.8 1618.61   2
   1  11  -5 896.052 556.907   2
   1  11  -4 24345.0 2332.52   2
   1  11  -3 3363.02 898.033   2
   1  11  -2 33012.1 2690.01   2
   1  11  -1 153.169 558.239   2
   1  11   0 14754.0 1771.36   2
   1  11   1 10700.6 1541.55   2
   1  11   2 2329.56 813.212   2
   1  11   3 27611.3 2374.10   2
   1  11   4-303.709 509.052   2
   1  11   5 15079.8 1754.57   2
   1  11   6 12120.9 1531.89   1
   1  11   6 16558.7 1838.36   2
   1  11   7 18176.3 1887.26   1
   1  11   7 17209.2 1919.40   2
   1  11   8 13592.2 1639.08   1
   1  11   9 5071.61 1057.12   1
   1  11  10 13869.9 1731.31   1
   1  11  11 285.921 373.189   1
   1  11  12 13696.9 1746.71   1
   1  11  13 5404.73 1152.88   1
   1  12  -9 2305.98 972.048   2
   1  12  -8 8630.18 1568.27   2
   1  12  -7 717.905 648.824   2
   1  12  -6 15668.7 2057.80   2
   1  12  -5-1865.23 798.899   2
   1  12  -4 20128.5 2287.15   2
   1  12  -3 16003.3 2001.38   2
   1  12  -2 6880.16 1326.36   2
   1  12  -1 22193.1 2312.65   2
   1  12   0 247.864 506.147   2
   1  12   1 20295.5 2175.96   2
   1  12   2 8151.90 1400.03   2
   1  12   3 25807.6 2450.77   2
   1  12   4 17853.0 2016.12   2
   1  12   5 8082.78 1378.63   2
   1  12   5 7465.25 1238.67   1
   1  12   6 13682.6 1688.64   1
   1  12   6 14392.3 1821.53   2
   1  12   7 1011.39 647.903   1
   1  12   7 387.345 365.472   2
   1  12   8 12519.7 1668.66   1
   1  12   9 230.237 363.971   1
   1  12  10 11080.7 1624.04   1
   1  12  11 4880.34 1091.99   1
   1  13  -6 11049.0 1809.26   2
   1  13  -5 8787.73 1594.27   2
   1  13  -4 1692.88 782.983   2
   1  13  -3 25886.1 2679.91   2
   1  13  -2 2808.77 995.416   2
   1  13  -1 21966.6 2429.12   2
   1  13   0 15831.6 2059.12   2
   1  13   1 7971.21 1477.47   2
   1  13   2 14753.3 1979.62   2
   1  13   3 402.568 689.550   2
   1  13   4 10308.6 1503.95   1
   1  13   4 9172.07 1537.80   2
   1  13   5-273.424 567.924   2
   1  13   5 360.240 393.117   1
   1  13   6 6282.91 1280.05   2
   1  13   6 5053.63 1090.16   1
   1  13   7 3726.76 976.117   1
   1  13   7 6989.89 1311.13   2
   1  13   8 5252.44 1154.34   1
   1  13   9 10264.0 1606.63   1
   1  14   0 13394.3 1906.46   2
   1  14   1-473.983 618.751   2
   1  14   2 8890.12 1436.92   1
   1  14   2 8354.97 1499.39   2
   1  14   3 3227.12 939.410   1
   1  14   3 2135.65 830.692   2
   1  14   4 6175.68 1365.90   2
   1  14   4 5554.48 1171.93   1
   1  14   5 12263.2 1711.41   1
   2 -12 -11 4271.78 1128.84   6
   2 -12 -10 44.1793 384.074   6
   2 -12  -9 6653.31 1346.67   6
   2 -12  -8-22.9890 388.143   6
   2 -12  -7 14221.8 1849.41   6
   2 -12  -6 6077.34 1220.17   6
   2 -12  -5 4325.68 1048.07   6
   2 -12  -4 24563.3 2382.06   6
   2 -12  -3 2153.46 770.748   6
   2 -12  -2 19704.4 2061.54   6
   2 -12  -1 3996.01 952.868   6
   2 -12   0 11450.7 1568.93   6
   2 -12   1 8995.80 1375.63   6
   2 -12   2 718.648 499.466   6
   2 -12   3 28193.9 2461.94   6
   2 -12   4 245.950 466.567   6
   2 -11 -13 7561.39 1486.59   6
   2 -11 -12 574.038 537.741   6
   2 -11 -11 12926.7 1832.28   6
   2 -11 -10 3470.85 994.660   6
   2 -11  -9 6217.11 1222.39   6
   2 -11  -8 14819.6 1847.51   6
   2 -11  -7 1164.01 554.386   6
   2 -11  -6 26030.9 2377.30   6
   2 -11  -5 869.668 632.081   6
   2 -11  -4 24954.4 2280.95   6
   2 -11  -3 13223.8 1639.66   6
   2 -11  -2 12068.9 1569.65   6
   2 -11  -1 24614.1 2213.16   6
   2 -11   0-148.089 531.080   6
   2 -11   1 20341.4 2001.05   6
   2 -11   2 2846.32 807.024   6
   2 -11   3 16834.0 1831.24   6
   2 -11   4 17484.6 1897.93   6
   2 -11   5 8601.08 1322.90   6
   2 -11   6 11888.8 1589.08   6
   2 -10 -14 5740.60 1326.49   6
   2 -10 -13 15337.1 2032.70   6
   2 -10 -12 11236.1 1707.79   6
   2 -10 -11 1919.70 755.618   6
   2 -10 -10 18363.5 2049.63   6
   2 -10  -9 867.112 611.362   6
   2 -10  -8 17125.9 1905.04   6
   2 -10  -7 6817.53 1195.58   6
   2 -10  -6 9239.96 1361.95   6
   2 -10  -5 17540.8 1819.72   6
   2 -10  -4 3437.43 796.702   6
   2 -10  -3 41024.6 2765.44   6
   2 -10  -2-283.939 420.053   6
   2 -10  -1 25645.9 2156.59   6
   2 -10   0 12582.2 1484.53   6
   2 -10   1 7830.37 1176.96   6
   2 -10   2 24640.5 2079.16   6
   2 -10   3 3826.51 844.491   6
   2 -10   4 38726.6 2676.81   6
   2 -10   5 2131.91 638.196   6
   2 -10   6 14436.7 1689.65   6
   2 -10   7 12700.5 1615.88   6
   2 -10   7 15998.4 1728.70   4
   2 -10   8 5146.58 1019.40   4
   2 -10   9 22637.1 2161.62   4
   2 -10  10-102.693 405.616   4
   2 -10  11 16967.9 1964.80   4
   2  -9 -15 4592.15 1191.82   6
   2  -9 -14 14772.5 1984.14   6
   2  -9 -13 69.8036 395.652   6
   2  -9 -12 25641.2 2487.32   6
   2  -9 -11 5115.07 1089.27   6
   2  -9 -10 10450.1 1502.26   6
   2  -9  -9 6859.50 1191.62   6
   2  -9  -8 12989.4 1620.09   6
   2  -9  -7 31109.0 2409.45   6
   2  -9  -6 317.585 319.215   6
   2  -9  -5 33017.2 2413.39   6
   2  -9  -4 5779.48 990.573   6
   2  -9  -3 6717.00 1064.77   6
   2  -9  -2 31332.8 2277.60   6
   2  -9  -1 3688.02 790.522   6
   2  -9   0 64812.8 3300.45   6
   2  -9   1 86.1983 277.946   6
   2  -9   2 36138.8 2415.12   6
   2  -9   3 5865.06 988.166   6
   2  -9   4 11634.1 1378.11   6
   2  -9   5 38004.3 2561.94   6
   2  -9   6 385.211 370.248   6
   2  -9   7 34264.2 2528.57   6
   2  -9   7 32019.2 2360.35   4
   2  -9   8 916.618 478.147   4
   2  -9   9 9799.85 1405.29   4
   2  -9  10 6514.79 1167.83   4
   2  -9  11 6948.91 1248.70   4
   2  -9  12 12256.3 1668.71   4
   2  -9  13 6128.17 1210.89   4
   2  -9  14 8811.75 1481.59   4
   2  -9  15 974.046 564.754   4
   2  -9  16 12473.5 1831.30   4
   2  -8 -16 18124.9 2224.15   6
   2  -8 -15 1426.53 761.867   6
   2  -8 -14 15308.1 1955.28   6
   2  -8 -13 1672.47 595.148   6
   2  -8 -12 21088.0 2157.33   6
   2  -8 -11 21606.3 2132.35   6
   2  -8 -10 610.530 486.097   6
   2  -8  -9 45272.5 2932.28   6
   2  -8  -8 5178.45 964.139   6
   2  -8  -7 8303.81 1222.68   6
   2  -8  -6 27760.2 2135.62   6
   2  -8  -5 370.144 341.827   6
   2  -8  -4 78627.5 3570.49   6
   2  -8  -3 2804.09 667.230   6
   2  -8  -2 30761.6 2112.05   6
   2  -8  -1 7299.81 1015.00   6
   2  -8   0 26066.2 1937.55   6
   2  -8   1 30431.0 2084.18   6
   2  -8   2 11683.3 1295.65   6
   2  -8   3 42295.3 2506.55   6
   2  -8   4 4102.72 785.579   6
   2  -8   5 14706.6 1496.03   6
   2  -8   6 8538.41 1159.69   6
   2  -8   7 14487.0 1512.78   4
   2  -8   7 15940.3 1635.57   6
   2  -8   8 33167.8 2381.41   4
   2  -8   9 1414.73 526.746   4
   2  -8  10 22343.9 2044.71   4
   2  -8  11-65.0481 365.995   4
   2  -8  12 29681.3 2506.74   4
   2  -8  13 2529.62 767.974   4
   2  -8  14 3034.45 945.879   4
   2  -8  15 20737.4 2247.78   4
   2  -8  16 1023.16 709.416   4
   2  -8  17 13370.6 1901.07   4
   2  -8  18-603.378 545.846   4
   2  -7 -17 1578.13 787.517   6
   2  -7 -16 16894.8 2089.31   6
   2  -7 -15 9328.32 1495.81   6
   2  -7 -14 4993.72 1105.88   6
   2  -7 -13 26190.3 2368.35   6
   2  -7 -12 855.923 483.522   6
   2  -7 -11 15486.9 1739.42   6
   2  -7 -10 32423.3 2454.58   6
   2  -7  -9 6642.94 1108.69   6
   2  -7  -8 102428. 4307.63   6
   2  -7  -7 597.847 427.252   6
   2  -7  -6 43546.5 2580.52   6
   2  -7  -5 367.907 307.524   6
   2  -7  -4 35457.2 2210.30   6
   2  -7  -3 4302.78 808.760   6
   2  -7  -2 8057.41 1010.32   6
   2  -7  -1 58631.8 2796.57   6
   2  -7   0 6041.37 866.533   6
   2  -7   1 62802.4 2910.76   6
   2  -7   2 185.055 276.159   6
   2  -7   3 31722.9 2039.79   6
   2  -7   4 12302.6 1268.47   6
   2  -7   5 3675.62 727.810   6
   2  -7   6 27374.5 1991.04   6
   2  -7   7 4433.24 842.412   6
   2  -7   7 4250.73 845.892   4
   2  -7   8 62368.6 3187.39   4
   2  -7   9 11188.6 1379.80   4
   2  -7  10 13405.8 1530.98   4
   2  -7  11 20997.1 1968.97   4
   2  -7  12 6227.95 1121.35   4
   2  -7  13 16313.5 1838.98   4
   2  -7  14 340.103 353.762   4
   2  -7  15 18609.8 2090.14   4
   2  -7  16 6262.67 1250.04   4
   2  -7  17 14310.1 1970.48   4
   2  -7  18 9653.89 1679.75   4
   2  -7  19 3086.36 1022.33   4
   2  -6 -18 6218.17 1364.69   6
   2  -6 -17 22003.9 2403.80   6
   2  -6 -16 3087.25 873.652   6
   2  -6 -15 30959.5 2662.64   6
   2  -6 -14 10267.3 1482.67   6
   2  -6 -13 12780.0 1623.66   6
   2  -6 -12 20448.2 1961.59   6
   2  -6 -11 609.530 436.454   6
   2  -6 -10 24582.7 2032.54   6
   2  -6  -9 784.203 436.869   6
   2  -6  -8 72061.9 3391.43   6
   2  -6  -7 13964.5 1412.28   6
   2  -6  -6 19829.2 1633.43   6
   2  -6  -5 43698.6 2383.08   6
   2  -6  -4 9870.85 1087.72   6
   2  -6  -3 59881.4 2708.47   6
   2  -6  -2 6452.25 853.329   6
   2  -6  -1 41243.2 2174.48   6
   2  -6   0 39901.0 2140.34   6
   2  -6   1 29207.3 1818.14   6
   2  -6   2 76720.2 3079.80   6
   2  -6   3 16945.8 1384.16   6
   2  -6   4 31291.5 1926.57   6
   2  -6   5 1811.57 505.068   6
   2  -6   6 11573.5 1219.84   6
   2  -6   7 4037.53 734.868   4
   2  -6   7 3771.33 759.449   6
   2  -6   8 24932.7 1887.71   4
   2  -6   9 43972.4 2623.28   4
   2  -6  10 92.7226 254.498   4
   2  -6  11 48032.3 2944.76   4
   2  -6  12 5283.14 978.474   4
   2  -6  13 31768.8 2504.37   4
   2  -6  14 14077.7 1717.92   4
   2  -6  15 9122.47 1443.76   4
   2  -6  16 26573.8 2513.17   4
   2  -6  17 55.2269 391.865   4
   2  -6  18 24300.8 2540.86   4
   2  -6  19 1329.91 794.310   4
   2  -5 -11 1716.99 552.867   6
   2  -5 -10 6056.74 968.770   6
   2  -5  -9 13642.4 1399.80   6
   2  -5  -8 31688.6 2080.45   6
   2  -5  -7 90150.3 3584.76   6
   2  -5  -6 5027.74 796.887   6
   2  -5  -5 144374. 4507.54   6
   2  -5  -4 9893.49 1033.04   6
   2  -5  -3 43881.1 2165.84   6
   2  -5  -2 57588.2 2460.53   6
   2  -5  -1 36260.1 1890.93   6
   2  -5   0 55967.7 2393.82   6
   2  -5   1 7006.21 824.611   6
   2  -5   2 43074.1 2104.54   6
   2  -5   3 2183.10 500.241   6
   2  -5   4 13490.8 1178.51   6
   2  -5   5 34464.0 1975.66   6
   2  -5   6 826.259 393.833   6
   2  -5   7 31144.3 2012.24   6
   2  -5   7 30091.1 1916.02   4
   2  -5   8 2738.17 625.765   4
   2  -5   9 79123.5 3495.80   4
   2  -5  10 22538.0 1867.08   4
   2  -5  11 66596.8 3383.12   4
   2  -5  12 54246.3 3155.69   4
   2  -5  13-170.277 326.759   4
   2  -5  14 24307.3 2203.91   4
   2  -5  15 1767.77 628.490   4
   2  -5  16 15839.2 1907.26   4
   2  -5  17 6942.12 1320.89   4
   2  -5  18 8786.97 1540.40   4
   2  -5  19 14087.6 1979.55   4
   2  -5  20-1431.21 705.569   4
   2  -4  -8 498.442 308.269   6
   2  -4  -7 80078.3 3186.61   6
   2  -4  -6 29668.0 1779.23   6
   2  -4  -6 26912.5 1030.98   3
   2  -4  -5 120215. 3843.59   6
   2  -4  -5 123612. 2576.44   3
   2  -4  -4 137762. 4060.76   6
   2  -4  -3 4377.65 631.837   6
   2  -4  -2 55344.4 2262.21   6
   2  -4  -1 265.506 208.591   6
   2  -4   0 29882.8 1582.93   6
   2  -4   1 25473.3 1471.17   6
   2  -4   2 29667.9 1603.22   6
   2  -4   3 74322.2 2719.68   6
   2  -4   4 5767.06 734.288   6
   2  -4   5 108662. 3534.65   6
   2  -4   6 23345.4 1589.55   6
   2  -4   7 68833.9 2884.42   4
   2  -4   8 48634.6 2493.23   4
   2  -4   9 24038.7 1811.92   4
   2  -4  10 22266.4 1796.25   4
   2  -4  11 188.904 313.546   4
   2  -4  12 45665.4 2784.25   4
   2  -4  13 24885.9 2103.83   4
   2  -4  14 13572.0 1604.58   4
   2  -4  15 17764.3 1894.27   4
   2  -4  16 5730.71 1103.88   4
   2  -4  17 13652.4 1780.60   4
   2  -4  18-244.886 524.455   4
   2  -4  19 12882.9 1858.42   4
   2  -4  20 11617.0 1841.96   4
   2  -3  -5 352.462 263.765   6
   2  -3  -5 451.035 170.825   3
   2  -3  -4 144965. 4019.09   6
   2  -3  -4 152126. 3073.97   3
   2  -3  -3 43540.7 1897.57   6
   2  -3  -2 50247.1 1997.40   6
   2  -3  -1 189977. 4477.35   6
   2  -3   0 30022.1 1463.26   6
   2  -3   0 31051.5 1146.52   2
   2  -3   1 99233.3 2325.17   2
   2  -3   1 98421.5 2913.29   6
   2  -3   2 348.494 223.647   6
   2  -3   3 60999.7 2258.87   6
   2  -3   4 91622.7 2930.99   6
   2  -3   5 52086.2 2215.20   6
   2  -3   6 61352.4 2494.96   4
   2  -3   6 62544.6 2551.05   6
   2  -3   7 460.394 230.326   4
   2  -3   8 62847.8 2770.44   4
   2  -3   9 28440.6 1055.23   5
   2  -3   9 27289.8 1860.30   4
   2  -3  10 20894.4 837.296   5
   2  -3  10 21041.2 1684.16   4
   2  -3  11 1757.13 538.475   4
   2  -3  12 15108.8 1545.92   4
   2  -3  13 17057.8 1696.69   4
   2  -3  14 408.686 383.393   4
   2  -3  15 23595.5 2152.66   4
   2  -3  16 19147.6 2016.09   4
   2  -3  17 18178.3 2031.40   4
   2  -3  18 13210.3 1780.59   4
   2  -3  19 5135.64 1184.85   4
   2  -3  20 36741.1 3181.17   4
   2  -3  21 910.387 612.965   4
   2  -2  -4 59704.5 2199.87   6
   2  -2  -4 60700.9 1741.30   3
   2  -2  -3 135808. 2867.12   3
   2  -2  -3 134069. 3480.90   6
   2  -2  -2 598.294 175.386   2
   2  -2  -2 556.923 158.198   3
   2  -2  -2 612.753 252.966   6
   2  -2  -1 100946. 2765.14   6
   2  -2  -1 102735. 2254.65   2
   2  -2   0 73475.8 2231.71   6
   2  -2   0 73506.5 1691.93   2
   2  -2   0 77945.3 1844.39   1
   2  -2   1 281414. 5753.49   6
   2  -2   1 296336. 4908.46   2
   2  -2   1 294071. 4995.24   1
   2  -2   2 3148.11 440.240   6
   2  -2   3 8909.12 755.355   6
   2  -2   4 111589. 3141.68   6
   2  -2   5 22295.6 1326.43   6
   2  -2   6 45745.8 2040.37   4
   2  -2   7 36351.4 1895.61   4
   2  -2   8 30176.8 1818.41   4
   2  -2   9 23374.0 788.673   5
   2  -2   9 22594.0 1637.35   4
   2  -2  10 2281.16 196.743   5
   2  -2  10 2380.49 571.867   4
   2  -2  11 1557.64 463.064   4
   2  -2  12 11650.8 1317.30   4
   2  -2  13 10770.4 1323.57   4
   2  -2  14 43844.5 2804.65   4
   2  -2  15 24884.5 2195.94   4
   2  -2  16 94369.1 4514.95   4
   2  -2  17 12517.3 1680.56   4
   2  -2  18 42723.9 3173.56   4
   2  -2  19 1147.49 619.996   4
   2  -2  20 15841.8 2082.37   4
   2  -2  21 3654.20 1031.42   4
   2  -1  -3 84151.6 2141.36   3
   2  -1  -2 10758.9 736.746   6
   2  -1  -2 11155.3 630.505   3
   2  -1  -1 16513.6 885.126   6
   2  -1  -1 17859.0 789.745   3
   2  -1   0 248740. 4796.74   6
   2  -1   1 111685. 2687.39   6
   2  -1   2 81957.6 2238.19   6
   2  -1   3 15652.4 909.841   6
   2  -1   4 32176.8 1421.16   6
   2  -1   5 73092.3 2422.35   4
   2  -1   6 6770.33 735.664   4
   2  -1   7 36694.5 1858.40   4
   2  -1   8 5082.22 721.488   4
   2  -1   9 30409.6 1839.28   4
   2  -1  10 32024.1 1985.47   4
   2  -1  11 59106.1 2877.84   4
   2  -1  12 52989.0 2827.20   4
   2  -1  13 14839.1 1552.54   4
   2  -1  14 58427.7 3222.05   4
   2  -1  15 917.175 520.546   4
   2  -1  16 45133.4 3017.40   4
   2  -1  17 9312.40 1401.29   4
   2  -1  18 7766.35 1363.88   4
   2  -1  19 11535.0 1719.48   4
   2  -1  20 967.536 506.124   4
   2  -1  21 17432.2 2227.55   4
   2   0  -2 106374. 2497.64   3
   2   0  -2 105820. 2500.09   4
   2   0  -1 11745.9 635.007   6
   2   0  -1 11485.4 647.252   3
   2   0  -1 11361.7 618.712   4
   2   0   0 90748.4 2071.39   6
   2   0   0 91453.8 2177.28   3
   2   0   1 132138. 2738.24   6
   2   0   2 73149.5 1878.97   6
   2   0   3 38007.2 1354.95   6
   2   0   4 45563.8 1636.97   4
   2   0   5 96184.0 2775.49   4
   2   0   6 568.819 136.188   1
   2   0   6 823.347 286.422   4
   2   0   7 114750. 2480.67   1
   2   0   7 115212. 3458.85   4
   2   0   8 72095.4 1893.41   1
   2   0   8 69819.8 2716.68   4
   2   0   9 34374.7 1923.94   4
   2   0  10 52557.3 1288.32   5
   2   0  10 51786.7 2511.49   4
   2   0  11 8037.53 356.561   5
   2   0  11 8037.38 1014.25   4
   2   0  12 68669.0 3220.75   4
   2   0  13 23250.0 1881.60   4
   2   0  14 8287.21 1181.04   4
   2   0  15 38986.5 2661.04   4
   2   0  16 1960.28 620.525   4
   2   0  17 22139.1 2157.94   4
   2   0  18 1.49306 329.422   4
   2   0  19 24529.0 2425.06   4
   2   0  20 803.357 600.926   4
   2   0  21 11648.5 1810.34   4
   2   1  -3 26899.5 1106.11   4
   2   1  -2 42480.6 1284.50   4
   2   1  -1 156375. 3000.49   2
   2   1  -1 152032. 3255.52   3
   2   1  -1 152464. 2899.80   4
   2   1   0 97107.7 1917.36   6
   2   1   0 98731.8 2072.40   2
   2   1   0 98598.6 2340.79   3
   2   1   1 123974. 2314.08   6
   2   1   1 121871. 2478.79   2
   2   1   1 124349. 2731.97   3
   2   1   2 10365.9 510.705   6
   2   1   2 8723.87 497.177   2
   2   1   3 78654.5 2025.31   4
   2   1   4 384.917 187.200   4
   2   1   5 85493.1 2464.99   4
   2   1   6 58722.1 2118.38   4
   2   1   7 63852.1 1870.42   1
   2   1   7 64942.9 2379.38   4
   2   1   8 152721. 3472.16   1
   2   1   8 154621. 4248.51   4
   2   1   9 24229.5 1173.02   1
   2   1   9 23915.4 978.388   5
   2   1   9 24138.9 1558.81   4
   2   1  10 42299.5 1672.62   1
   2   1  10 41255.0 1317.73   5
   2   1  10 41106.5 2195.42   4
   2   1  11 63007.7 1661.74   5
   2   1  11 59318.3 2821.34   4
   2   1  12 11942.9 596.017   5
   2   1  12 10974.5 1225.60   4
   2   1  13 52539.4 2857.20   4
   2   1  14 243.234 284.394   4
   2   1  15 39187.4 2646.59   4
   2   1  16-102.153 386.197   4
   2   1  17 20366.8 2044.11   4
   2   1  18 18403.5 2028.82   4
   2   1  19 4464.71 1037.48   4
   2   1  20 14097.9 1912.75   4
   2   1  21 532.579 553.181   4
   2   2  -3 147266. 3149.98   4
   2   2  -2 2786.48 283.261   4
   2   2  -2 2468.01 338.892   2
   2   2  -1 131778. 2968.94   2
   2   2  -1 131311. 2388.58   4
   2   2   0 1992.94 308.328   2
   2   2   0 1956.74 304.813   3
   2   2   1 53300.6 1647.51   2
   2   2   1 54017.7 1601.01   3
   2   2   2 176272. 3761.12   2
   2   2   2 181996. 3212.60   4
   2   2   3 8886.07 641.858   2
   2   2   3 9378.17 544.407   4
   2   2   4 120336. 2796.35   4
   2   2   5 1123.72 265.305   4
   2   2   6 166460. 3989.92   4
   2   2   7 5439.00 629.570   4
   2   2   8 80776.7 2467.32   1
   2   2   8 79840.6 2281.31   5
   2   2   8 80457.4 2816.96   4
   2   2   9 77381.6 2246.88   5
   2   2   9 77841.8 2486.91   1
   2   2   9 76266.6 2905.41   4
   2   2  10 6204.31 552.480   5
   2   2  10 5805.04 796.263   4
   2   2  10 6012.39 654.344   1
   2   2  11 27365.2 1478.25   1
   2   2  11 27153.3 1193.31   5
   2   2  11 27490.7 1843.36   4
   2   2  12 17933.1 1233.30   1
   2   2  12 17662.7 932.274   5
   2   2  12 20195.5 1639.32   4
   2   2  13 55551.7 2912.21   4
   2   2  14 14343.4 1510.24   4
   2   2  15 38255.1 2598.36   4
   2   2  16 26413.7 2235.76   4
   2   2  17-172.077 298.913   4
   2   2  18 25415.5 2395.63   4
   2   2  19 3348.50 904.374   4
   2   2  20 11305.8 1680.74   4
   2   2  21 3679.05 993.306   4
   2   3 -10 81739.1 1975.87   5
   2   3  -4 59744.1 2137.17   2
   2   3  -3 134212. 3453.99   2
   2   3  -3 141418. 3023.40   4
   2   3  -2 68921.3 2188.56   2
   2   3  -2 68562.6 1626.36   4
   2   3  -1 58730.5 1957.15   2
   2   3  -1 57985.6 1273.51   6
   2   3   0 73521.2 2239.26   2
   2   3   1 7879.50 680.735   2
   2   3   2 76404.3 2023.73   3
   2   3   2 73688.0 1541.64   4
   2   3   2 75663.5 2327.96   2
   2   3   3 54343.4 1941.79   2
   2   3   3 56434.2 1477.73   4
   2   3   4 74196.6 1996.50   4
   2   3   4 75390.9 2381.98   2
   2   3   5 120354. 2974.11   4
   2   3   5 119958. 3260.25   2
   2   3   6 49642.2 1851.10   5
   2   3   6 48513.5 1831.53   4
   2   3   7 25314.9 1294.83   5
   2   3   7 25001.5 1369.67   4
   2   3   8 196.080 181.665   4
   2   3   8 264.988 185.555   5
   2   3   9 82483.0 2747.94   1
   2   3   9 79536.2 2514.96   5
   2   3   9 83340.3 3007.38   4
   2   3  10 3932.01 664.422   4
   2   3  10 2794.46 489.276   1
   2   3  10 4655.65 551.430   5
   2   3  11 65521.9 2229.39   5
   2   3  11 66816.4 2954.84   4
   2   3  11 65207.4 2541.78   1
   2   3  12 44552.1 2136.26   1
   2   3  12 47802.8 1838.63   5
   2   3  12 50409.4 2637.29   4
   2   3  13 2028.31 575.554   4
   2   3  13 2528.70 522.797   1
   2   3  14 41115.8 2609.18   4
   2   3  15 764.310 396.721   4
   2   3  16 19283.1 1914.26   4
   2   3  17 3000.50 787.933   4
   2   3  18 16405.6 1919.80   4
   2   3  19 6091.48 1205.78   4
   2   3  20 312.813 595.256   4
   2   3  21 19216.7 2278.58   4
   2   4 -10 28528.0 1122.23   5
   2   4  -9 51719.0 1693.88   5
   2   4  -8 1079.99 248.107   5
   2   4  -7 79831.5 2986.99   2
   2   4  -7 76686.7 2293.44   5
   2   4  -6 6769.10 631.923   5
   2   4  -6 6112.43 757.629   2
   2   4  -5 44399.0 2009.69   2
   2   4  -4 41509.4 1898.89   2
   2   4  -3 661.438 265.500   2
   2   4  -3 818.468 207.656   6
   2   4  -2 110205. 2421.43   6
   2   4  -2 108275. 3199.32   2
   2   4  -1 993.597 159.604   6
   2   4  -1 647.927 275.387   2
   2   4   0 94180.9 1848.01   6
   2   4   0 93150.4 2899.38   2
   2   4   1 72866.3 2508.19   2
   2   4   2 76257.0 2592.62   2
   2   4   2 73954.8 2473.13   5
   2   4   3 103270. 3065.34   5
   2   4   3 104065. 3153.35   2
   2   4   3 103887. 2294.18   4
   2   4   4 2005.66 386.146   5
   2   4   4 2545.65 323.416   4
   2   4   4 1772.68 410.980   2
   2   4   5 130041. 3593.30   5
   2   4   5 132574. 3186.35   4
   2   4   5 132178. 3720.57   2
   2   4   6 9376.97 852.906   5
   2   4   6 10541.6 810.426   4
   2   4   7 66124.0 2418.05   5
   2   4   7 67130.8 2371.30   4
   2   4   8 17951.6 1207.72   5
   2   4   8 19545.9 1289.41   4
   2   4   9 52810.8 2272.11   1
   2   4   9 53035.7 2147.28   5
   2   4   9 51212.6 2325.77   4
   2   4  10 18542.4 1362.05   1
   2   4  10 19297.3 1247.00   5
   2   4  10 19353.6 1456.46   4
   2   4  11 4620.17 746.474   4
   2   4  11 4428.17 694.285   1
   2   4  11 4323.64 592.771   5
   2   4  12 19147.1 1256.75   5
   2   4  12 22870.5 1747.14   4
   2   4  12 21353.5 1534.17   1
   2   4  13 22561.4 1626.20   1
   2   4  13 22944.9 1372.07   5
   2   4  13 21776.8 1793.65   4
   2   4  14 44034.2 2385.58   1
   2   4  14 43597.4 2671.65   4
   2   4  15 2260.18 651.854   4
   2   4  15 2058.20 508.223   1
   2   4  16 20414.9 1964.33   4
   2   4  17 16664.5 1851.64   4
   2   4  18 251.390 388.934   4
   2   4  19 31404.2 2751.40   4
   2   4  20 4900.86 1097.08   4
   2   4  21 11327.1 1762.90   4
   2   5 -11 60258.8 3071.62   2
   2   5 -10 2071.93 323.869   5
   2   5 -10 1671.91 486.367   2
   2   5  -9 26512.0 1867.64   2
   2   5  -9 26247.0 1258.97   5
   2   5  -8 687.164 251.190   5
   2   5  -8 833.727 410.905   2
   2   5  -7 3045.61 597.956   2
   2   5  -7 2841.96 447.771   5
   2   5  -6 17758.4 1125.82   5
   2   5  -6 18591.1 1416.16   2
   2   5  -5 556.910 294.425   2
   2   5  -5-66.5767 139.068   5
   2   5  -4 48101.0 1982.26   5
   2   5  -4 50472.6 2286.37   2
   2   5  -3 93532.8 2939.77   5
   2   5  -3 94255.3 3215.27   2
   2   5  -2 112022. 3518.98   2
   2   5  -2 111478. 2594.51   6
   2   5  -2 106067. 3231.32   5
   2   5  -1 69445.9 1760.18   6
   2   5  -1 71633.1 2689.90   2
   2   5  -1 68283.7 2489.17   5
   2   5   0 49993.6 1347.57   6
   2   5   0 48184.5 2162.35   2
   2   5   0 44047.2 1977.06   5
   2   5   1 110796. 3508.27   2
   2   5   1 108890. 3341.89   5
   2   5   2 60.2745 210.887   2
   2   5   2 308.290 233.850   5
   2   5   3 53299.4 2232.60   5
   2   5   3 54853.5 2360.13   2
   2   5   4 69735.9 2639.26   5
   2   5   4 71074.8 2022.13   4
   2   5   4 70870.6 2737.34   2
   2   5   5 78881.8 2856.76   5
   2   5   5 79505.5 2345.82   4
   2   5   5 80249.6 2937.28   2
   2   5   6 56466.1 2361.63   5
   2   5   6 55200.2 2024.74   4
   2   5   6 53009.5 2373.92   2
   2   5   7 2262.07 417.757   4
   2   5   7 1787.24 416.090   5
   2   5   8 27283.9 1602.69   5
   2   5   8 26862.8 1545.65   4
   2   5   9 635.706 293.694   4
   2   5   9 656.229 288.187   5
   2   5  10 37375.2 2088.91   1
   2   5  10 38995.8 1968.39   5
   2   5  10 39325.7 2114.82   4
   2   5  11 1775.73 477.099   4
   2   5  11 1103.46 407.929   1
   2   5  11 1610.66 412.225   5
   2   5  12 50643.2 2290.42   5
   2   5  12 46905.1 2462.75   1
   2   5  12 49236.6 2640.67   4
   2   5  13 15771.4 1558.86   4
   2   5  13 14365.0 1359.96   1
   2   5  13 14052.4 1175.67   5
   2   5  14 7556.23 1107.20   4
   2   5  14 9287.56 1107.26   1
   2   5  15 53960.0 3122.75   4
   2   5  15 51000.5 2781.63   1
   2   5  16 193.205 298.746   4
   2   5  16-249.991 409.834   1
   2   5  17 22168.1 2120.85   4
   2   5  18 7348.90 1293.08   4
   2   5  19 5383.57 1148.03   4
   2   5  20 10570.9 1641.50   4
   2   5  21-160.357 374.358   4
   2   6 -17 14533.3 1878.91   2
   2   6 -16 1449.60 632.710   2
   2   6 -15 26069.3 2374.05   2
   2   6 -14-55.2517 336.036   2
   2   6 -13 15918.9 1732.86   2
   2   6 -12 8380.73 1209.90   2
   2   6 -11 11862.1 1373.84   2
   2   6 -10 12150.8 1377.98   2
   2   6  -9 740.505 360.408   2
   2   6  -9 455.141 222.240   5
   2   6  -8 15743.1 1474.85   2
   2   6  -8 15433.3 1075.48   5
   2   6  -7 8340.30 1059.56   2
   2   6  -7 8369.17 815.942   5
   2   6  -6 53160.9 2622.40   2
   2   6  -6 50404.3 2134.84   5
   2   6  -5 23037.6 1675.96   2
   2   6  -5 26004.9 1501.68   5
   2   6  -4 48640.0 2416.20   2
   2   6  -4 45918.4 2076.20   5
   2   6  -3 64169.1 2772.23   2
   2   6  -3 60864.3 2465.95   5
   2   6  -2 30.1115 156.316   5
   2   6  -2 672.203 368.464   2
   2   6  -1 68102.9 2847.50   2
   2   6  -1 66220.8 2627.06   5
   2   6   0 12320.8 703.595   6
   2   6   0 13789.9 1233.67   2
   2   6   0 10463.5 1008.88   5
   2   6   1 57671.0 2598.68   2
   2   6   1 54284.1 2397.77   5
   2   6   2 41374.8 2080.75   5
   2   6   2 41423.7 2181.45   2
   2   6   3 40098.9 2068.07   5
   2   6   3 44831.0 2270.07   2
   2   6   4 65826.9 2734.54   5
   2   6   4 65956.8 2820.42   2
   2   6   5 2045.56 494.801   5
   2   6   5 2099.16 530.356   2
   2   6   6 43360.6 2219.44   5
   2   6   6 48662.4 1920.35   4
   2   6   6 44458.6 2322.91   2
   2   6   7 13294.6 1194.26   5
   2   6   7 14280.2 1073.95   4
   2   6   7 13233.7 1264.43   2
   2   6   8 24757.8 1650.52   5
   2   6   8 26006.5 1552.44   4
   2   6   9 12602.1 1180.54   5
   2   6   9 14878.1 1228.66   4
   2   6  10 24178.6 1745.56   1
   2   6  10 21894.2 1569.25   5
   2   6  10 21728.9 1574.16   4
   2   6  11 58125.9 2862.78   1
   2   6  11 60954.2 2728.31   5
   2   6  11 65594.4 2954.05   4
   2   6  12 894.315 419.432   4
   2   6  12 1280.11 463.063   1
   2   6  12 774.976 338.702   5
   2   6  13 72886.9 3426.04   4
   2   6  13 73362.7 3363.80   1
   2   6  14 7263.35 1044.95   1
   2   6  14 8426.38 1193.74   4
   2   6  15 18906.9 1731.59   1
   2   6  15 17816.0 1787.95   4
   2   6  16 9895.31 1293.37   1
   2   6  16 12043.8 1525.20   4
   2   6  17 38.9628 342.105   4
   2   6  18 11552.2 1624.14   4
   2   6  19 323.339 454.636   4
   2   6  20 19561.1 2266.29   4
   2   7 -16 2732.60 846.162   2
   2   7 -15 14001.7 1799.16   2
   2   7 -14 3070.58 872.448   2
   2   7 -13 5813.79 1098.58   2
   2   7 -12 19318.5 1930.37   2
   2   7 -11-2.40157 344.442   2
   2   7 -10 43285.0 2742.28   2
   2   7  -9 22030.4 1919.28   2
   2   7  -9 21578.6 1362.22   5
   2   7  -8 10275.7 1264.74   2
   2   7  -8 10951.7 986.163   5
   2   7  -7 18205.8 1645.95   2
   2   7  -7 16888.8 1256.09   5
   2   7  -6 3344.23 714.324   2
   2   7  -6 2398.14 485.157   5
   2   7  -5 38586.6 1997.39   5
   2   7  -5 43399.4 2475.17   2
   2   7  -4 721.169 435.993   2
   2   7  -4 164.578 244.765   5
   2   7  -3 60602.6 2879.66   2
   2   7  -3 52626.9 2433.23   5
   2   7  -2 13588.4 1335.59   2
   2   7  -2 12182.8 1131.48   5
   2   7  -1 33331.6 2103.33   2
   2   7  -1 33333.7 1929.15   5
   2   7   0 38844.5 2265.22   2
   2   7   0 37188.2 2054.79   5
   2   7   1 7191.90 974.727   2
   2   7   1 7322.81 926.728   5
   2   7   2 33704.4 1973.20   5
   2   7   2 35174.1 2157.43   2
   2   7   3 250.682 204.159   5
   2   7   3 754.798 403.778   2
   2   7   4 32646.2 1980.93   5
   2   7   4 34540.5 2140.24   2
   2   7   5 17878.1 1461.51   5
   2   7   5 19402.2 1576.90   2
   2   7   6 20688.2 1582.80   5
   2   7   6 21743.1 1703.95   2
   2   7   7 89756.4 3493.13   5
   2   7   7 85165.9 3544.38   2
   2   7   8-122.110 167.540   4
   2   7   8-22.1168 199.661   5
   2   7   9 119639. 4212.02   5
   2   7   9 125249. 4029.61   4
   2   7  10 10353.1 1158.43   5
   2   7  10 7764.26 1082.66   1
   2   7  10 11789.3 1174.05   4
   2   7  11 67060.2 3225.34   1
   2   7  11 62220.5 2945.36   5
   2   7  11 65754.7 3043.60   4
   2   7  12 15893.0 1444.02   5
   2   7  12 14859.2 1521.24   1
   2   7  12 16636.2 1540.09   4
   2   7  13 17251.2 1641.29   4
   2   7  13 18006.6 1697.97   1
   2   7  14 7744.98 1151.76   4
   2   7  14 6901.17 1083.67   1
   2   7  15 88.9541 264.865   4
   2   7  15 147.335 324.485   1
   2   7  16 11753.6 1477.61   1
   2   7  16 11041.3 1477.60   4
   2   7  17 218.974 343.668   1
   2   7  17 567.290 318.630   4
   2   7  18 4478.69 1050.56   4
   2   7  19 7490.64 1372.02   4
   2   7  20 3710.29 963.880   4
   2   8 -15 426.476 549.472   2
   2   8 -14 20681.0 2221.95   2
   2   8 -13 2610.80 788.714   2
   2   8 -12 18231.3 1970.71   2
   2   8 -11 4855.21 994.628   2
   2   8 -10 12992.2 1589.00   2
   2   8  -9 25115.1 2150.05   2
   2   8  -8 671.757 425.553   2
   2   8  -8 1106.48 366.046   5
   2   8  -7 38349.9 2550.39   2
   2   8  -7 36063.8 2009.78   5
   2   8  -6 3681.63 822.177   2
   2   8  -6 3236.76 630.132   5
   2   8  -5 20566.8 1542.84   5
   2   8  -5 24818.2 1972.60   2
   2   8  -4 14714.0 1311.10   5
   2   8  -4 15259.9 1558.19   2
   2   8  -3 22975.9 1874.37   2
   2   8  -3 22112.8 1632.93   5
   2   8  -2 20280.0 1748.75   2
   2   8  -2 19518.2 1546.82   5
   2   8  -1 180.577 364.283   2
   2   8  -1 807.940 399.086   5
   2   8   0 11816.3 1351.85   2
   2   8   0 12031.4 1220.33   5
   2   8   1 26336.0 1839.06   5
   2   8   1 26587.7 2001.65   2
   2   8   2 760.341 331.627   5
   2   8   2 688.021 418.727   2
   2   8   3 81287.5 3429.17   5
   2   8   3 87782.6 3745.37   2
   2   8   4 6605.76 935.065   5
   2   8   4 9511.77 1197.80   2
   2   8   5 140052. 4740.73   5
   2   8   5 135140. 4828.97   2
   2   8   6 254.158 334.538   2
   2   8   6 176.651 368.993   5
   2   8   7 144478. 4890.28   5
   2   8   7 142669. 5020.31   2
   2   8   8 10023.9 1196.69   5
   2   8   8 10040.5 1255.34   2
   2   8   9 21444.7 1754.70   5
   2   8  10 24311.1 1973.62   1
   2   8  10 25398.2 1936.01   5
   2   8  10 26710.1 1836.02   4
   2   8  11-48.8353 219.926   4
   2   8  11 327.710 306.103   5
   2   8  11 679.762 429.329   1
   2   8  12 13738.6 1530.32   1
   2   8  12 14975.6 1477.40   4
   2   8  13 329.144 352.867   4
   2   8  13 118.222 374.966   1
   2   8  14 27946.9 2212.10   4
   2   8  14 22458.1 2060.02   1
   2   8  15 623.648 333.254   4
   2   8  15 332.359 345.591   1
   2   8  16 1897.47 645.787   1
   2   8  16 2464.85 734.068   4
   2   8  17 11966.6 1604.20   1
   2   8  17 12242.7 1615.61   4
   2   8  18-151.799 365.945   4
   2   8  19 12995.7 1799.40   4
   2   9 -14 7637.88 1469.03   2
   2   9 -13 13523.4 1847.74   2
   2   9 -12 4394.29 1048.71   2
   2   9 -11 17297.1 1977.11   2
   2   9 -10 1262.05 556.246   2
   2   9  -9 21840.2 2151.92   2
   2   9  -8 3651.89 877.574   2
   2   9  -8 4728.21 749.904   5
   2   9  -7 5824.53 855.385   5
   2   9  -7 6940.75 1173.21   2
   2   9  -6 32729.5 2074.20   5
   2   9  -6 36905.3 2626.57   2
   2   9  -5-68.0741 367.220   2
   2   9  -5 343.390 274.080   5
   2   9  -4 23378.9 1767.48   5
   2   9  -4 20218.4 1928.81   2
   2   9  -3 8283.13 1069.02   5
   2   9  -3 6692.66 1096.75   2
   2   9  -2 13982.8 1561.93   2
   2   9  -2 11249.1 1265.78   5
   2   9  -1 17743.3 1752.59   2
   2   9  -1 15880.1 1496.31   5
   2   9   0 39.5262 396.190   2
   2   9   0 90.2164 299.033   5
   2   9   1 79973.2 3784.77   2
   2   9   1 74991.0 3421.15   5
   2   9   2 165.455 338.262   5
   2   9   2 647.023 483.877   2
   2   9   3 101321. 4146.12   5
   2   9   3 119674. 4671.88   2
   2   9   4 541.986 284.155   5
   2   9   4-110.241 376.494   2
   2   9   5 34916.0 2345.39   5
   2   9   5 37390.7 2510.21   2
   2   9   6 21902.0 1845.48   5
   2   9   6 20900.9 1876.36   2
   2   9   7 5498.81 1000.85   2
   2   9   7 6451.86 1010.18   5
   2   9   8 20099.1 1785.38   5
   2   9   8 20614.4 1892.30   2
   2   9   9-248.658 245.616   5
   2   9   9 266.545 346.554   1
   2   9  10 30272.0 2334.54   1
   2   9  10 37740.2 2499.68   5
   2   9  11 5982.49 1057.30   1
   2   9  12 10871.9 1453.97   1
   2   9  13 10299.2 1430.79   1
   2   9  14 3463.95 832.974   4
   2   9  14 2590.53 748.941   1
   2   9  15 12110.8 1600.64   1
   2   9  15 15446.4 1738.36   4
   2   9  16 491.148 385.560   4
   2   9  16 732.881 452.655   1
   2   9  17 11111.4 1581.83   4
   2   9  17 9560.92 1510.08   1
   2   9  18 6015.59 1201.11   4
   2   9  19 6681.12 1328.15   4
   2  10 -13 15769.4 2099.41   2
   2  10 -12 675.368 704.714   2
   2  10 -11 10223.4 1622.77   2
   2  10 -10 14009.3 1808.47   2
   2  10  -9 2195.57 800.029   2
   2  10  -8 22283.9 2242.94   2
   2  10  -7 85.9609 386.613   2
   2  10  -6 33803.8 2233.00   5
   2  10  -6 41220.0 2957.77   2
   2  10  -5 8833.50 1158.87   5
   2  10  -5 8662.48 1364.02   2
   2  10  -4 713.233 440.994   2
   2  10  -4 1317.47 429.401   5
   2  10  -3 36208.0 2689.92   2
   2  10  -3 29505.1 2143.49   5
   2  10  -2 3109.18 849.628   2
   2  10  -2 2209.51 663.180   5
   2  10  -1 40885.4 2593.06   5
   2  10  -1 49468.8 3142.72   2
   2  10   0-325.782 447.423   2
   2  10   0 559.014 270.018   5
   2  10   1 13660.0 1489.74   5
   2  10   1 12994.7 1603.87   2
   2  10   2 23969.9 1996.21   5
   2  10   2 22858.5 2105.90   2
   2  10   3 6029.74 1018.98   5
   2  10   3 5876.62 1141.74   2
   2  10   4 29125.1 2239.33   5
   2  10   4 30026.4 2400.88   2
   2  10   5 571.833 429.615   5
   2  10   5-409.605 489.818   2
   2  10   6 36391.9 2541.47   5
   2  10   6 38845.4 2712.89   2
   2  10   7 1255.71 606.223   2
   2  10   7 2001.76 671.166   5
   2  10   8 23716.0 2057.38   5
   2  10   8 21347.8 2036.43   2
   2  10   9 4036.45 935.026   1
   2  10   9 3566.23 827.052   5
   2  10  10 6338.88 1109.50   1
   2  10  11 17977.1 1899.36   1
   2  10  12-90.2753 362.541   1
   2  10  13 15431.3 1826.37   1
   2  10  14 2826.59 836.867   1
   2  10  15 20519.1 2170.00   1
   2  10  16 3360.65 947.923   1
   2  11 -11 993.700 774.941   2
   2  11 -10 26740.3 2706.09   2
   2  11  -9 947.248 607.224   2
   2  11  -8 5239.84 1213.48   2
   2  11  -7 5396.83 1185.60   2
   2  11  -6 272.260 458.116   2
   2  11  -5 23610.9 2359.43   2
   2  11  -4 93.4066 431.753   2
   2  11  -3 19551.4 1828.94   5
   2  11  -3 17608.3 2011.76   2
   2  11  -2 6438.92 1220.83   2
   2  11  -2 6987.63 1113.73   5
   2  11  -1 13427.0 1543.69   5
   2  11  -1 16426.4 1897.19   2
   2  11   0 16357.0 1717.89   5
   2  11   0 18460.4 2012.20   2
   2  11   1 484.352 351.641   5
   2  11   1 483.809 560.373   2
   2  11   2 31846.2 2439.60   5
   2  11   2 33877.2 2703.84   2
   2  11   3-32.1412 311.478   5
   2  11   3 178.678 491.684   2
   2  11   4 12407.4 1547.25   5
   2  11   4 17349.5 1915.40   2
   2  11   5 4141.00 935.837   5
   2  11   5 2392.52 714.684   2
   2  11   6 10313.2 1499.32   2
   2  11   6 10439.9 1436.47   5
   2  11   7 19729.6 2015.07   2
   2  11   8 828.888 539.319   2
   2  11   8 1027.98 531.454   1
   2  11   9 18102.5 1940.11   1
   2  11  10 193.341 395.624   1
   2  11  11 18671.2 2023.24   1
   2  11  12 3556.67 959.741   1
   2  11  13 14596.1 1840.02   1
   2  11  14 9545.79 1522.52   1
   2  12  -9 11125.8 1798.91   2
   2  12  -8-811.368 626.710   2
   2  12  -7 20861.4 2418.33   2
   2  12  -6 78.5874 573.960   2
   2  12  -5 10706.6 1739.86   2
   2  12  -4 6487.80 1378.19   2
   2  12  -3 2823.49 956.068   2
   2  12  -2 19210.5 2213.70   2
   2  12  -1-138.612 407.111   2
   2  12   0 19974.0 2224.81   2
   2  12   1 3106.87 888.158   2
   2  12   2 14464.3 1895.28   2
   2  12   3 18733.2 2137.91   2
   2  12   4 1941.69 751.047   2
   2  12   5 13234.0 1750.28   2
   2  12   6 10.8423 516.131   2
   2  12   7 14465.1 1860.28   2
   2  12   8 4284.78 1058.57   2
   2  12   8 3216.30 933.129   1
   2  12   9 21051.4 2202.39   1
   2  12  10 9031.56 1497.47   1
   2  12  11 5619.22 1206.91   1
   2  12  12 9818.71 1593.17   1
   2  13  -5 867.277 583.485   2
   2  13  -4 10023.3 1723.06   2
   2  13  -3 332.643 582.021   2
   2  13  -2 8160.15 1592.16   2
   2  13  -1 8693.11 1601.63   2
   2  13   0 6789.11 1408.71   2
   2  13   1 16528.0 2110.03   2
   2  13   2 1750.49 784.899   2
   2  13   3 18209.9 2185.04   2
   2  13   4 1166.28 757.845   2
   2  13   5 6060.04 1306.51   2
   2  13   6 8213.32 1447.29   2
   2  13   7 3717.73 1036.86   2
   2  13   7 5374.10 1184.41   1
   2  13   8 8211.21 1477.26   2
   2  13   8 7165.57 1303.58   1
   2  13   9 497.860 623.219   1
   2  14   5 3752.37 1041.58   1
   3 -13  -6 11265.3 1749.64   6
   3 -13  -5-386.006 513.003   6
   3 -13  -4 5002.39 1260.18   6
   3 -12  -9 1440.16 699.261   6
   3 -12  -8 2986.66 930.029   6
   3 -12  -7 3009.49 1000.14   6
   3 -12  -6 1035.26 615.239   6
   3 -12  -5 14347.1 1943.17   6
   3 -12  -4 942.356 607.678   6
   3 -12  -3 12360.0 1750.40   6
   3 -12  -2 5088.92 1149.96   6
   3 -12  -1 3933.30 1060.47   6
   3 -12   0 6399.00 1251.15   6
   3 -12   1 2348.23 868.767   6
   3 -12   2 24542.9 2417.17   6
   3 -12   3 928.139 570.190   6
   3 -12   4 15331.9 1922.44   6
   3 -12   5 4385.22 1123.96   6
   3 -12   6 9317.19 1553.14   6
   3 -12   7 6081.29 1264.10   6
   3 -11 -11-647.309 559.231   6
   3 -11 -10 1779.19 742.591   6
   3 -11  -9 5673.18 1246.10   6
   3 -11  -8 2303.59 774.602   6
   3 -11  -7 19616.8 2199.53   6
   3 -11  -6 3977.23 995.443   6
   3 -11  -5 17616.9 2030.91   6
   3 -11  -4 8992.97 1461.68   6
   3 -11  -3 12326.6 1691.50   6
   3 -11  -2 13690.4 1751.21   6
   3 -11  -1 313.750 454.096   6
   3 -11   0 14236.9 1750.14   6
   3 -11   1 1875.63 732.221   6
   3 -11   2 15460.1 1845.49   6
   3 -11   3 15524.4 1849.04   6
   3 -11   4 2702.32 850.425   6
   3 -11   5 12424.7 1695.46   6
   3 -11   6 341.834 514.418   6
   3 -11   7 12233.2 1657.71   4
   3 -11   7 13983.9 1832.58   6
   3 -11   8 1737.12 714.422   4
   3 -11   9 8716.71 1462.42   4
   3 -10 -13 6783.46 1457.10   6
   3 -10 -12 1042.01 650.424   6
   3 -10 -11 17955.9 2178.40   6
   3 -10 -10 2099.31 824.628   6
   3 -10  -9 20630.5 2224.11   6
   3 -10  -8 1038.67 629.338   6
   3 -10  -7 9166.66 1463.76   6
   3 -10  -6 13656.4 1722.73   6
   3 -10  -5 946.743 509.618   6
   3 -10  -4 25358.9 2291.49   6
   3 -10  -3 822.741 602.438   6
   3 -10  -2 16109.6 1814.11   6
   3 -10  -1 13537.1 1652.53   6
   3 -10   0 10057.8 1427.44   6
   3 -10   1 8739.29 1335.54   6
   3 -10   2 5225.22 1005.97   6
   3 -10   3 14438.4 1702.83   6
   3 -10   4 747.917 503.841   6
   3 -10   5 14654.5 1748.36   6
   3 -10   6 25448.2 2348.72   6
   3 -10   7 8883.75 1415.16   6
   3 -10   8 29461.5 2609.70   6
   3 -10   8 28604.6 2480.37   4
   3 -10   9 611.812 368.476   4
   3 -10  10 26341.2 2519.54   4
   3 -10  11 7482.23 1399.89   4
   3 -10  12 11882.8 1745.93   4
   3 -10  13 4100.94 1020.69   4
   3 -10  14-281.206 474.667   4
   3  -9 -14 1569.47 821.574   6
   3  -9 -13 29272.5 2818.98   6
   3  -9 -12 987.077 623.670   6
   3  -9 -11 15224.4 1943.88   6
   3  -9 -10 22435.2 2316.70   6
   3  -9  -9 3835.29 995.751   6
   3  -9  -8 24094.9 2276.55   6
   3  -9  -7 781.895 518.125   6
   3  -9  -6 22005.3 2087.95   6
   3  -9  -5 6505.97 1120.33   6
   3  -9  -4 18046.2 1841.57   6
   3  -9  -3 11322.5 1471.24   6
   3  -9  -2 8214.41 1245.72   6
   3  -9  -1 11623.9 1461.64   6
   3  -9   0 329.620 373.732   6
   3  -9   1 21314.4 1955.85   6
   3  -9   2 7258.71 1164.05   6
   3  -9   3 16763.5 1740.48   6
   3  -9   4 34124.5 2491.66   6
   3  -9   5 11994.0 1503.92   6
   3  -9   6 61485.5 3521.70   6
   3  -9   7 11666.6 1549.64   6
   3  -9   8 22734.1 2193.92   6
   3  -9   8 24012.8 2185.18   4
   3  -9   9 7709.28 1278.29   4
   3  -9  10 2865.13 845.438   4
   3  -9  11 14048.9 1823.55   4
   3  -9  12 4874.44 1101.26   4
   3  -9  13 9259.36 1544.90   4
   3  -9  14 488.350 413.379   4
   3  -9  15 4684.68 1157.68   4
   3  -9  16 10327.8 1763.73   4
   3  -8 -15 15905.6 2143.96   6
   3  -8 -14 5907.46 1263.36   6
   3  -8 -13 9320.92 1561.93   6
   3  -8 -12 12578.8 1749.41   6
   3  -8 -11 11459.6 1622.46   6
   3  -8 -10 37929.7 2878.15   6
   3  -8  -9 7441.49 1266.44   6
   3  -8  -8 39998.7 2829.90   6
   3  -8  -7 8362.89 1291.65   6
   3  -8  -6 5030.07 991.731   6
   3  -8  -5 18051.3 1794.45   6
   3  -8  -4 5734.12 995.484   6
   3  -8  -3 19947.7 1857.57   6
   3  -8  -2 7006.68 1073.17   6
   3  -8  -1 16517.9 1664.04   6
   3  -8   0 76107.1 3613.63   6
   3  -8   1 17535.6 1678.50   6
   3  -8   2 66910.7 3370.80   6
   3  -8   3 86.1888 320.539   6
   3  -8   4 18201.8 1731.87   6
   3  -8   5 3557.85 803.345   6
   3  -8   6 14752.7 1625.02   6
   3  -8   7 36438.1 2593.16   6
   3  -8   8 4639.08 929.776   6
   3  -8   8 6995.24 1132.43   4
   3  -8   9 15167.0 1719.47   4
   3  -8  10 348.669 319.928   4
   3  -8  11 18663.9 2016.68   4
   3  -8  12 4292.60 1028.00   4
   3  -8  13 15730.5 1935.87   4
   3  -8  14 12516.9 1770.37   4
   3  -8  15-210.997 347.160   4
   3  -8  16 13665.9 1952.68   4
   3  -8  17 221.989 461.366   4
   3  -7 -16 13557.1 1963.27   6
   3  -7 -15 8571.85 1559.72   6
   3  -7 -14 22547.5 2388.82   6
   3  -7 -13 279.786 428.133   6
   3  -7 -12 18083.0 2020.39   6
   3  -7 -11 860.916 524.252   6
   3  -7 -10 13443.7 1668.66   6
   3  -7  -9 50412.4 3161.38   6
   3  -7  -8 9093.26 1296.96   6
   3  -7  -7 50471.1 2989.72   6
   3  -7  -6 958.067 518.698   6
   3  -7  -5 22009.2 1880.15   6
   3  -7  -4 25561.8 1978.73   6
   3  -7  -3 15631.5 1537.71   6
   3  -7  -2 57922.1 2956.11   6
   3  -7  -1 2316.35 664.346   6
   3  -7   0 49961.8 2734.27   6
   3  -7   1 17720.3 1601.16   6
   3  -7   2 36112.0 2313.21   6
   3  -7   3 35805.6 2307.65   6
   3  -7   4 3673.29 766.217   6
   3  -7   5 8843.52 1154.35   6
   3  -7   6 7818.76 1112.77   6
   3  -7   7 32457.8 2344.39   6
   3  -7   8 2529.87 662.778   6
   3  -7   8 3937.15 833.880   4
   3  -7   9 49048.3 2986.80   4
   3  -7  10 34686.6 2564.51   4
   3  -7  11 10231.6 1452.17   4
   3  -7  12 18983.6 2015.24   4
   3  -7  13 403.767 343.436   4
   3  -7  14 8355.39 1407.95   4
   3  -7  15 1288.43 603.109   4
   3  -7  16 5562.80 1250.72   4
   3  -7  17 8910.35 1549.12   4
   3  -7  18 502.800 619.934   4
   3  -6 -17 499.278 592.317   6
   3  -6 -16 19198.0 2258.29   6
   3  -6 -15 3252.64 952.538   6
   3  -6 -14 26572.0 2513.47   6
   3  -6 -13 29185.1 2551.34   6
   3  -6 -12 6092.13 1165.10   6
   3  -6 -11 22374.1 2098.89   6
   3  -6 -10 1648.17 617.227   6
   3  -6  -9 27803.0 2218.61   6
   3  -6  -8 9902.92 1296.47   6
   3  -6  -7 35677.1 2411.32   6
   3  -6  -6 56520.0 2976.67   6
   3  -6  -5 7266.74 1040.88   6
   3  -6  -4 53565.2 2786.08   6
   3  -6  -3-158.308 351.791   6
   3  -6  -2 24935.9 1805.28   6
   3  -6  -1 36797.0 2182.45   6
   3  -6   0 18476.1 1538.19   6
   3  -6   1 61748.5 2916.11   6
   3  -6   2 5615.95 854.266   6
   3  -6   3 55254.8 2754.08   6
   3  -6   4 671.163 358.757   6
   3  -6   5 39514.0 2360.01   6
   3  -6   6 18474.4 1628.46   6
   3  -6   7 38693.1 2457.73   6
   3  -6   8 14411.1 1501.22   4
   3  -6   8 15939.0 1590.82   6
   3  -6   9 10392.2 1330.43   4
   3  -6  10 32841.7 2424.92   4
   3  -6  11 493.375 440.400   4
   3  -6  12 10368.8 1446.14   4
   3  -6  13 9032.42 1419.49   4
   3  -6  14 6553.46 1243.45   4
   3  -6  15 13712.3 1799.66   4
   3  -6  16 1029.10 580.075   4
   3  -6  17 30379.1 2840.07   4
   3  -6  18 6540.72 1358.30   4
   3  -6  19 7840.80 1514.08   4
   3  -5 -18 17549.1 2240.38   6
   3  -5 -17 17010.8 2165.47   6
   3  -5 -16 6482.67 1272.12   6
   3  -5 -15 24891.5 2417.29   6
   3  -5 -14-238.624 451.957   6
   3  -5 -13 31239.0 2545.93   6
   3  -5 -12 3427.39 869.118   6
   3  -5 -11 9407.30 1293.43   6
   3  -5 -10 27572.1 2196.25   6
   3  -5  -9 6024.04 1011.43   6
   3  -5  -8 34620.2 2319.09   6
   3  -5  -7 2678.67 719.433   6
   3  -5  -6 73532.7 3292.70   6
   3  -5  -5 6604.57 919.420   6
   3  -5  -4 52607.6 2612.97   6
   3  -5  -3 44539.4 2350.94   6
   3  -5  -2 16441.8 1384.87   6
   3  -5  -1 61180.0 2717.76   6
   3  -5   0 308.589 224.334   6
   3  -5   1 68784.6 2902.32   6
   3  -5   2 25281.3 1707.29   6
   3  -5   3 49998.6 2467.20   6
   3  -5   4 47132.1 2407.54   6
   3  -5   5 23045.9 1681.85   6
   3  -5   6 37198.7 2222.55   6
   3  -5   7 334.411 326.661   6
   3  -5   8 14310.6 1441.82   6
   3  -5   8 13587.3 1402.62   4
   3  -5   9 2078.95 602.584   4
   3  -5  10 40406.6 2607.33   4
   3  -5  11 26358.4 2168.08   4
   3  -5  12 2270.00 688.123   4
   3  -5  13 50903.6 3221.28   4
   3  -5  14 4478.79 989.803   4
   3  -5  15 30776.6 2635.49   4
   3  -5  16 5416.72 1163.22   4
   3  -5  17 16892.3 2056.55   4
   3  -5  18 9930.26 1668.61   4
   3  -5  19 139.691 417.051   4
   3  -4 -11 1449.38 626.462   6
   3  -4 -10 53392.7 2975.01   6
   3  -4  -9-145.063 356.059   6
   3  -4  -8 44561.2 2540.16   6
   3  -4  -7 5646.05 877.818   6
   3  -4  -6 36934.7 2163.75   6
   3  -4  -5 49665.7 2478.09   6
   3  -4  -4 352.230 258.948   6
   3  -4  -3 60355.4 2620.39   6
   3  -4  -2 12574.3 1127.65   6
   3  -4  -1 71750.0 2798.42   6
   3  -4   0 67418.7 2677.09   6
   3  -4   1 108635. 3553.38   6
   3  -4   2 33338.6 1850.38   6
   3  -4   3 3622.69 610.180   6
   3  -4   4 51530.7 2390.27   6
   3  -4   5 8539.83 978.016   6
   3  -4   6 117023. 4005.59   6
   3  -4   7 43825.7 2388.28   6
   3  -4   8 24745.1 1824.80   4
   3  -4   9 54660.4 2869.52   4
   3  -4  10-266.058 392.646   4
   3  -4  11 48273.7 2871.59   4
   3  -4  12 5859.40 1022.65   4
   3  -4  13 16715.1 1772.77   4
   3  -4  14 16382.9 1791.67   4
   3  -4  15 2971.65 825.385   4
   3  -4  16 26799.5 2465.44   4
   3  -4  17 494.040 477.398   4
   3  -4  18 20624.1 2298.84   4
   3  -4  19 1421.82 717.044   4
   3  -4  20 5325.10 1292.12   4
   3  -3  -8 11421.5 1209.65   6
   3  -3  -7 31658.3 1969.44   6
   3  -3  -6 3159.99 624.380   6
   3  -3  -5 47907.4 2297.80   6
   3  -3  -4 44540.1 2153.10   6
   3  -3  -3 52449.7 2297.30   6
   3  -3  -2 46358.4 2082.13   6
   3  -3  -1 13154.2 1062.54   6
   3  -3  -1 12108.9 713.498   2
   3  -3   0 129953. 2796.12   2
   3  -3   0 132888. 3758.71   6
   3  -3   1 2446.26 270.800   2
   3  -3   1 2474.30 457.162   6
   3  -3   2 210806. 5191.89   6
   3  -3   3 33655.6 1755.35   6
   3  -3   4 58760.3 2433.77   6
   3  -3   5 128793. 3937.09   6
   3  -3   6 10625.0 1056.51   6
   3  -3   7 94438.6 3462.24   4
   3  -3   7 93739.3 3488.26   6
   3  -3   8 30285.8 1947.07   4
   3  -3   9 69882.3 3169.92   4
   3  -3  10 9018.85 1160.15   4
   3  -3  11 6695.76 1030.85   4
   3  -3  12 12551.0 1452.44   4
   3  -3  13 201.296 372.349   4
   3  -3  14 32808.3 2503.42   4
   3  -3  15 2834.82 796.350   4
   3  -3  16 29026.7 2523.98   4
   3  -3  17 1050.70 539.258   4
   3  -3  18 5217.26 1175.05   4
   3  -3  19 8091.20 1513.18   4
   3  -3  20 3343.32 1052.40   4
   3  -2  -6 13671.3 1174.91   6
   3  -2  -5 11896.2 1050.24   6
   3  -2  -4 87597.6 2969.41   6
   3  -2  -3 2147.83 445.665   6
   3  -2  -2 130225. 3579.07   6
   3  -2  -2 128139. 2772.32   2
   3  -2  -1 49074.4 1970.72   6
   3  -2  -1 50785.0 1362.23   2
   3  -2   0 223832. 5051.36   6
   3  -2   0 223482. 3848.81   2
   3  -2   1 60528.6 1279.92   2
   3  -2   1 61367.7 2211.82   6
   3  -2   2 193826. 3550.36   1
   3  -2   2 190353. 4595.23   6
   3  -2   3 67954.5 2432.40   6
   3  -2   3 69164.8 1490.06   1
   3  -2   4 39060.6 1804.50   6
   3  -2   5 166261. 4408.91   6
   3  -2   6 82869.6 2990.21   6
   3  -2   7 16313.6 1305.64   4
   3  -2   8 23644.5 1672.10   4
   3  -2   9 6238.22 914.448   4
   3  -2  10 51775.0 2714.31   4
   3  -2  11 201.571 265.222   4
   3  -2  12 33068.6 2301.08   4
   3  -2  13 7974.41 1170.83   4
   3  -2  14 5539.26 1041.22   4
   3  -2  15 20053.5 2002.60   4
   3  -2  16 513.450 493.049   4
   3  -2  17 21102.5 2193.15   4
   3  -2  18 2136.24 751.193   4
   3  -2  19 19481.6 2245.09   4
   3  -2  20 7415.32 1431.08   4
   3  -2  21 8321.83 1557.06   4
   3  -1  -4 119064. 3386.81   6
   3  -1  -3 48049.1 1903.65   6
   3  -1  -2 42173.4 1710.30   6
   3  -1  -1 157775. 3772.82   6
   3  -1   0 71.4737 165.557   6
   3  -1   1 144613. 3495.36   6
   3  -1   2 13671.0 903.083   6
   3  -1   3 60441.3 2098.83   6
   3  -1   4 4501.15 553.783   6
   3  -1   5 20391.7 1252.43   6
   3  -1   6 112593. 1975.83   1
   3  -1   6 126293. 3613.19   4
   3  -1   7 7497.00 827.941   4
   3  -1   8 51119.6 2413.50   4
   3  -1   9 18201.9 1458.54   4
   3  -1  10 64720.7 2988.13   4
   3  -1  11 26527.0 1926.84   4
   3  -1  12 9633.33 1193.43   4
   3  -1  13 45777.1 2766.28   4
   3  -1  14 286.930 315.058   4
   3  -1  15 42610.8 2872.62   4
   3  -1  16 7990.02 1289.62   4
   3  -1  17 8356.86 1375.75   4
   3  -1  18 7952.30 1358.94   4
   3  -1  19 2424.67 818.338   4
   3  -1  20 9959.62 1634.59   4
   3  -1  21 667.182 642.451   4
   3   0  -3 158034. 3749.64   6
   3   0  -2 10331.8 734.197   6
   3   0  -1 150987. 3407.72   6
   3   0   0 90849.1 1735.15   2
   3   0   0 92300.8 2386.42   6
   3   0   1 16636.3 884.159   6
   3   0   2 40213.0 1460.95   6
   3   0   3 324.991 181.513   6
   3   0   4 64079.7 2108.64   6
   3   0   5 1728.18 382.619   4
   3   0   6 135729. 3752.53   4
   3   0   7 62076.5 2482.74   4
   3   0   8 46704.0 1379.54   1
   3   0   8 45881.6 2209.25   4
   3   0   9 40871.8 1342.31   1
   3   0   9 41783.6 2194.20   4
   3   0  10 8381.20 1005.20   4
   3   0  11 82535.1 3457.84   4
   3   0  12 2346.00 623.831   4
   3   0  13 42451.5 2606.98   4
   3   0  14 28311.6 2214.27   4
   3   0  15 8557.99 1268.30   4
   3   0  16 25620.2 2254.17   4
   3   0  17 1371.15 528.537   4
   3   0  18 13696.7 1780.30   4
   3   0  19 3150.21 922.937   4
   3   0  20 9877.58 1629.98   4
   3   0  21 8786.42 1602.92   4
   3   1  -2 104017. 2534.71   6
   3   1  -1 26003.1 1017.55   6
   3   1  -1 24075.4 988.031   4
   3   1  -1 24620.4 938.228   2
   3   1   0 112401. 2417.53   2
   3   1   0 115537. 2510.35   6
   3   1   1 1090.70 198.359   6
   3   1   1 294.740 156.658   2
   3   1   2 24120.1 955.699   6
   3   1   2 22966.3 872.716   2
   3   1   3 21475.6 969.741   6
   3   1   3 22366.0 888.885   2
   3   1   4 40851.4 1546.02   4
   3   1   5 23139.9 1231.17   4
   3   1   6 73197.7 2504.09   4
   3   1   7 94506.5 3072.76   4
   3   1   8 5734.57 736.152   4
   3   1   9 107490. 2782.61   1
   3   1   9 109909. 3677.27   4
   3   1  10 44586.1 1672.04   1
   3   1  10 44994.5 2338.50   4
   3   1  11 13857.6 920.709   1
   3   1  11 13043.5 1289.16   4
   3   1  12 63226.8 2215.59   1
   3   1  12 61885.0 1883.52   5
   3   1  12 67358.6 3141.03   4
   3   1  13 281.392 260.375   4
   3   1  13 165.819 121.042   5
   3   1  14 77232.6 3681.23   4
   3   1  15-10.5880 319.711   4
   3   1  16 22202.1 2061.35   4
   3   1  17 10687.9 1499.16   4
   3   1  18 4223.56 1009.01   4
   3   1  19 22488.1 2318.59   4
   3   1  20 459.438 536.551   4
   3   1  21 18666.5 2245.70   4
   3   2  -3 1280.82 274.207   2
   3   2  -2 191428. 4037.57   2
   3   2  -2 182779. 3683.05   4
   3   2  -1 15936.7 672.688   6
   3   2  -1 15861.3 866.804   2
   3   2  -1 16064.7 683.273   4
   3   2   0 30412.3 1218.20   2
   3   2   0 30961.8 882.753   6
   3   2   0 29720.0 904.105   4
   3   2   1 65204.4 1932.80   2
   3   2   1 67723.0 1469.03   6
   3   2   2 5478.21 505.376   2
   3   2   2 4982.13 346.550   6
   3   2   3 44604.5 1535.70   2
   3   2   3 41970.9 1360.19   4
   3   2   4 375.237 199.893   2
   3   2   4 210.362 144.817   4
   3   2   5 274392. 5536.60   4
   3   2   6 2157.08 389.143   4
   3   2   7 80203.2 2690.90   4
   3   2   8 62089.8 2453.97   4
   3   2   9 6569.68 795.041   4
   3   2  10 92599.8 2812.88   1
   3   2  10 91065.4 3389.96   4
   3   2  11 6343.70 621.296   5
   3   2  11 5812.15 659.961   1
   3   2  11 6695.43 919.709   4
   3   2  12 31117.6 1609.65   1
   3   2  12 30853.3 1395.42   5
   3   2  12 29326.4 2008.27   4
   3   2  13 16813.8 1199.95   1
   3   2  13 18582.7 1027.11   5
   3   2  13 16842.1 1573.88   4
   3   2  14 47390.7 2812.83   4
   3   2  15 21017.6 1917.05   4
   3   2  16 6462.15 1110.59   4
   3   2  17 33768.0 2640.64   4
   3   2  18 2035.04 735.076   4
   3   2  19 26555.2 2525.10   4
   3   2  20 8699.24 1493.90   4
   3   2  21 4157.15 1115.64   4
   3   3  -5 157.553 166.247   2
   3   3  -4 44946.3 1879.01   2
   3   3  -3 36583.0 1623.91   2
   3   3  -3 36985.1 1303.74   4
   3   3  -2 108046. 2342.56   4
   3   3  -2 110000. 3019.58   2
   3   3  -1 103540. 2861.12   2
   3   3  -1 99268.9 1979.69   4
   3   3   0 85440.8 2544.08   2
   3   3   1 173818. 4085.70   2
   3   3   2 696.155 127.517   4
   3   3   2 494.011 254.925   2
   3   3   3 76182.4 2411.39   2
   3   3   3 76626.4 1827.65   4
   3   3   4 92337.1 2755.52   2
   3   3   4 93384.7 2314.53   4
   3   3   5 1393.51 283.226   4
   3   3   5 894.284 274.795   2
   3   3   6 98663.0 2817.77   4
   3   3   7 5559.40 634.858   4
   3   3   8 40371.4 1893.17   4
   3   3   9 17528.2 1145.44   5
   3   3   9 16826.2 1275.76   4
   3   3  10 75711.6 2683.96   1
   3   3  10 73490.4 2530.68   5
   3   3  10 76187.9 2998.18   4
   3   3  11 20517.4 1351.05   1
   3   3  11 20289.8 1249.31   5
   3   3  11 21606.3 1613.67   4
   3   3  12 4293.84 756.836   4
   3   3  12 3991.01 614.952   1
   3   3  12 4053.07 553.152   5
   3   3  13 67070.4 2368.38   5
   3   3  13 70762.3 3299.49   4
   3   3  13 67198.1 2713.26   1
   3   3  14-81.6044 331.260   4
   3   3  14-79.0543 156.999   5
   3   3  14 6.23307 220.925   1
   3   3  15 68582.7 2912.44   1
   3   3  15 75517.3 3699.06   4
   3   3  16 1430.43 567.740   4
   3   3  17 20939.0 2069.31   4
   3   3  18 12774.3 1659.68   4
   3   3  19 1163.72 598.688   4
   3   3  20 19119.3 2203.76   4
   3   3  21 2183.59 826.774   4
   3   4  -7 9059.28 981.825   2
   3   4  -6 64765.6 2648.94   2
   3   4  -5 64772.4 2560.58   2
   3   4  -4 15493.3 1167.87   2
   3   4  -3 118544. 3532.76   2
   3   4  -3 123499. 2735.29   4
   3   4  -2 12917.8 1024.58   2
   3   4  -2 15759.8 677.188   6
   3   4  -2 14650.3 608.932   4
   3   4  -1 153093. 2669.86   6
   3   4  -1 161681. 4118.01   2
   3   4   0 3276.40 543.622   2
   3   4   1 34096.2 1689.06   2
   3   4   2 66985.9 2456.49   2
   3   4   3 21480.9 1331.63   2
   3   4   3 21033.7 748.545   4
   3   4   4 101485. 3151.82   2
   3   4   4 100110. 2353.89   4
   3   4   5 113172. 2802.77   4
   3   4   5 112522. 3401.63   2
   3   4   6 66537.4 2156.93   4
   3   4   6 64577.4 2503.44   2
   3   4   7 17138.1 1099.47   4
   3   4   8 33758.1 1756.15   5
   3   4   8 38757.0 1828.33   4
   3   4   9 62436.9 2465.92   5
   3   4   9 63934.2 2577.23   4
   3   4  10 2907.94 570.084   4
   3   4  10 3464.37 556.496   5
   3   4  11 59154.2 2574.77   1
   3   4  11 61912.4 2463.56   5
   3   4  11 66366.5 2893.02   4
   3   4  12 8936.06 886.038   5
   3   4  12 9492.46 1009.84   1
   3   4  12 11617.2 1236.40   4
   3   4  13 33534.3 1755.38   5
   3   4  13 37646.1 2076.92   1
   3   4  13 33965.4 2257.13   4
   3   4  14 13022.4 1066.12   5
   3   4  14 14075.2 1493.45   4
   3   4  14 12206.3 1201.57   1
   3   4  15 13421.6 1303.82   1
   3   4  15 14984.5 1611.73   4
   3   4  16 20005.1 1644.94   1
   3   4  16 23783.4 2114.67   4
   3   4  17 855.713 479.613   4
   3   4  18 25161.2 2334.94   4
   3   4  19 3391.78 931.511   4
   3   4  20 23121.2 2419.28   4
   3   4  21 7464.86 1425.93   4
   3   5 -13 1791.19 578.270   2
   3   5 -12 55106.9 3084.33   2
   3   5 -11 15304.1 1547.27   2
   3   5 -10 45618.6 2621.53   2
   3   5  -9 11895.9 1287.05   2
   3   5  -9 11480.3 910.827   5
   3   5  -8 8383.16 1041.22   2
   3   5  -8 9897.27 867.461   5
   3   5  -7 53189.6 2593.64   2
   3   5  -6 10514.7 1107.59   2
   3   5  -5 78354.7 3066.83   2
   3   5  -4 566.068 324.133   2
   3   5  -3 30131.4 1758.90   2
   3   5  -3 30351.9 1166.87   6
   3   5  -2 19328.9 780.121   6
   3   5  -2 20684.6 1422.41   2
   3   5  -1 1032.50 407.082   2
   3   5  -1 1216.94 144.047   6
   3   5   0 75214.6 2837.45   2
   3   5   1 4014.07 651.383   2
   3   5   2 60868.1 2554.50   2
   3   5   3 28742.5 1717.15   2
   3   5   4 119300. 2643.10   4
   3   5   4 118893. 3767.60   2
   3   5   5 72953.4 2800.88   5
   3   5   5 76488.6 2135.06   4
   3   5   5 72534.9 2842.49   2
   3   5   6 1688.88 328.183   4
   3   5   6 1431.80 424.042   2
   3   5   6 1698.71 423.777   5
   3   5   7 53623.4 2407.61   5
   3   5   7 54141.4 2053.31   4
   3   5   7 55209.0 2509.21   2
   3   5   8 11481.0 1074.04   5
   3   5   8 11649.6 982.194   4
   3   5   9 43646.7 2175.55   5
   3   5   9 45076.1 2106.21   4
   3   5  10 21106.5 1488.70   5
   3   5  10 20687.5 1484.94   4
   3   5  11 28294.5 1833.73   1
   3   5  11 28064.3 1719.82   5
   3   5  11 31527.1 1940.43   4
   3   5  12 15531.5 1373.16   1
   3   5  12 15244.1 1252.11   5
   3   5  12 16639.5 1466.52   4
   3   5  13 7007.33 1004.71   4
   3   5  13 5657.69 766.145   5
   3   5  13 7163.78 964.068   1
   3   5  14 26584.5 1677.26   5
   3   5  14 28020.9 2110.58   4
   3   5  14 24963.1 1845.45   1
   3   5  15 1108.26 473.532   4
   3   5  15 399.784 353.917   1
   3   5  15 638.665 321.094   5
   3   5  16 20499.0 1755.11   1
   3   5  16 24104.8 2112.08   4
   3   5  17 8250.68 1306.61   4
   3   5  17 7327.41 1094.08   1
   3   5  18 7943.32 1293.74   4
   3   5  19 30221.1 2662.05   4
   3   5  20 1930.05 683.366   4
   3   5  21 27297.7 2711.72   4
   3   6 -17 1763.89 805.216   2
   3   6 -16 32997.1 2801.23   2
   3   6 -15 260.389 454.540   2
   3   6 -14 25637.6 2310.11   2
   3   6 -13 4609.07 949.051   2
   3   6 -12 17468.3 1793.11   2
   3   6 -11 36054.1 2498.06   2
   3   6 -10 57.3177 259.280   2
   3   6  -9 39878.4 1863.53   5
   3   6  -9 38885.6 2457.63   2
   3   6  -8 1404.42 525.573   2
   3   6  -8 910.309 319.375   5
   3   6  -7 34102.8 2182.89   2
   3   6  -7 32710.6 1752.51   5
   3   6  -6 11368.5 1228.43   2
   3   6  -6 10499.6 995.122   5
   3   6  -5 20745.3 1608.50   2
   3   6  -5 18583.7 1333.78   5
   3   6  -4 47058.8 2424.47   2
   3   6  -4 44039.5 2127.81   5
   3   6  -3 1981.30 495.974   2
   3   6  -3 1138.19 311.288   5
   3   6  -2 53977.4 1524.15   6
   3   6  -2 57230.0 2630.21   2
   3   6  -2 53862.2 2409.30   5
   3   6  -1 7953.19 447.942   6
   3   6  -1 6127.18 828.392   2
   3   6  -1 8559.41 935.284   5
   3   6   0 46389.8 2348.25   2
   3   6   0 42359.9 2143.68   5
   3   6   1 29371.0 1855.91   2
   3   6   1 24874.1 1639.51   5
   3   6   2 24972.8 1693.57   2
   3   6   2 21152.4 1501.56   5
   3   6   3 56913.0 2565.79   5
   3   6   3 59329.4 2689.39   2
   3   6   4 1555.72 447.196   5
   3   6   4 2692.94 620.821   2
   3   6   5 73573.1 3018.28   5
   3   6   5 79083.9 2226.36   4
   3   6   5 76003.0 3115.20   2
   3   6   6 19163.8 1486.21   5
   3   6   6 22343.6 1173.50   4
   3   6   6 22248.7 1612.55   2
   3   6   7 28381.6 1828.81   5
   3   6   7 30814.7 1514.20   4
   3   6   7 27636.3 1851.86   2
   3   6   8 10972.6 1149.04   5
   3   6   8 14792.5 1100.56   4
   3   6   9 11971.8 1181.24   5
   3   6   9 11302.1 1025.40   4
   3   6  10 12092.1 1184.25   5
   3   6  10 11447.5 1095.25   4
   3   6  11 609.171 305.043   4
   3   6  11 993.757 448.049   1
   3   6  11 386.360 218.848   5
   3   6  12 32931.9 2168.43   1
   3   6  12 33924.4 2043.89   5
   3   6  12 38896.4 2275.95   4
   3   6  13 11511.9 1177.13   5
   3   6  13 9466.08 1180.31   1
   3   6  13 13372.4 1382.91   4
   3   6  14 11108.1 1162.06   5
   3   6  14 13940.2 1452.08   1
   3   6  14 11584.6 1350.49   4
   3   6  15 41400.5 2286.78   5
   3   6  15 44731.6 2798.17   4
   3   6  15 40054.8 2540.06   1
   3   6  16 746.588 422.381   4
   3   6  16 1052.99 546.453   1
   3   6  17 44371.1 2824.44   1
   3   6  17 55620.8 3370.64   4
   3   6  18 78.4176 341.940   4
   3   6  18-361.112 442.963   1
   3   6  19 41596.9 3152.20   4
   3   6  20 233.257 538.218   4
   3   6  21 14807.3 2006.74   4
   3   7 -16 9450.17 1591.93   2
   3   7 -15 15112.6 1874.33   2
   3   7 -14 1325.85 558.722   2
   3   7 -13 16112.4 1857.94   2
   3   7 -12 361.218 300.539   2
   3   7 -11 33808.0 2543.54   2
   3   7 -10 3578.98 841.307   2
   3   7  -9 17705.2 1727.81   2
   3   7  -9 17049.7 1265.98   5
   3   7  -8 29224.6 2194.57   2
   3   7  -8 29603.2 1735.55   5
   3   7  -7 3899.33 797.317   2
   3   7  -7 3177.48 577.877   5
   3   7  -6 53863.7 2886.65   2
   3   7  -6 53265.0 2464.77   5
   3   7  -5 535.953 285.761   5
   3   7  -5 770.006 379.340   2
   3   7  -4 46221.2 2572.69   2
   3   7  -4 44605.8 2293.30   5
   3   7  -3 9608.13 1160.22   2
   3   7  -3 9683.19 1045.52   5
   3   7  -2 27834.8 1953.19   2
   3   7  -2 27827.4 1806.55   5
   3   7  -1 23429.6 1769.27   2
   3   7  -1 20971.8 1570.82   5
   3   7   0 1043.37 441.720   2
   3   7   0 883.131 376.825   5
   3   7   1 46682.7 2540.16   2
   3   7   1 41456.0 2287.39   5
   3   7   2 6264.76 928.557   2
   3   7   2 5308.54 820.807   5
   3   7   3 43235.5 2346.43   5
   3   7   3 44111.7 2488.04   2
   3   7   4 5731.05 858.329   5
   3   7   4 4414.24 808.650   2
   3   7   5 36321.1 2180.48   5
   3   7   5 39290.6 2318.63   2
   3   7   6 1235.80 464.061   2
   3   7   6 2678.05 607.846   5
   3   7   7 11938.7 1238.60   5
   3   7   7 13986.3 1018.06   4
   3   7   7 14031.2 1409.27   2
   3   7   8 26832.0 1888.02   5
   3   7   8 28500.3 1587.07   4
   3   7   8 26188.0 1930.57   2
   3   7   9 14363.4 1382.19   5
   3   7   9 15584.7 1232.88   4
   3   7  10 10591.1 1195.27   5
   3   7  10 13205.6 1207.54   4
   3   7  11 83851.8 3557.73   5
   3   7  11 93439.6 3547.92   4
   3   7  12 5045.71 819.462   4
   3   7  12 5884.55 898.204   5
   3   7  12 7062.06 1049.95   1
   3   7  13 86081.3 3631.25   5
   3   7  13 85511.0 3842.17   1
   3   7  13 95200.6 3906.36   4
   3   7  14 760.223 470.532   4
   3   7  14 378.007 425.183   1
   3   7  14 506.633 302.827   5
   3   7  15 53560.1 2807.99   5
   3   7  15 50692.2 3033.14   1
   3   7  16 152.203 460.857   4
   3   7  16 324.173 364.186   1
   3   7  17 10825.6 1430.96   1
   3   7  17 11485.4 1566.90   4
   3   7  18 7126.20 1274.91   4
   3   7  18 5689.65 1084.99   1
   3   7  19 10115.5 1567.34   4
   3   7  20 10542.7 1664.75   4
   3   8 -15 19016.2 2196.77   2
   3   8 -14 1743.00 721.357   2
   3   8 -13 23173.5 2324.88   2
   3   8 -12 10799.0 1542.73   2
   3   8 -11 13895.9 1719.90   2
   3   8 -10 19525.1 1964.47   2
   3   8  -9 94.5277 375.159   2
   3   8  -8 36151.3 2055.03   5
   3   8  -8 42198.1 2786.66   2
   3   8  -7 7628.10 1205.50   2
   3   8  -7 6903.41 896.886   5
   3   8  -6 23301.5 1995.01   2
   3   8  -6 24674.1 1720.76   5
   3   8  -5 26365.9 2093.80   2
   3   8  -5 22508.7 1668.76   5
   3   8  -4 15552.1 1581.25   2
   3   8  -4 11675.6 1202.05   5
   3   8  -3 36093.1 2425.58   2
   3   8  -3 37456.4 2228.47   5
   3   8  -2-64.4730 323.902   2
   3   8  -2 215.440 248.184   5
   3   8  -1 22204.9 1863.06   2
   3   8  -1 18376.1 1565.94   5
   3   8   0 1783.52 601.339   2
   3   8   0 1084.31 451.100   5
   3   8   1 744.161 403.659   2
   3   8   1 940.637 430.894   5
   3   8   2 21855.7 1729.79   5
   3   8   2 20325.7 1797.43   2
   3   8   3 30050.9 2058.88   5
   3   8   3 31035.5 2212.50   2
   3   8   4 23077.3 1800.42   5
   3   8   4 22669.1 1877.67   2
   3   8   5 295.743 255.819   5
   3   8   5 15.9990 325.270   2
   3   8   6 33302.7 2223.02   5
   3   8   6 35833.7 2350.83   2
   3   8   7 22900.2 1825.13   5
   3   8   7 23515.7 1912.68   2
   3   8   8 20236.5 1722.99   5
   3   8   8 22334.2 1891.77   2
   3   8   9 86457.6 3762.98   5
   3   8   9 92403.4 3279.01   4
   3   8  10-94.7322 219.602   4
   3   8  10 280.811 318.166   5
   3   8  11 57990.4 3060.60   5
   3   8  11 63036.4 2879.24   4
   3   8  11 54181.0 3066.08   1
   3   8  12 155.163 255.111   4
   3   8  12 189.785 286.153   5
   3   8  12 694.454 526.479   1
   3   8  13 24274.1 2080.33   1
   3   8  13 24856.8 1980.69   5
   3   8  13 25373.2 1959.05   4
   3   8  14 4840.35 887.753   4
   3   8  14 3942.51 813.097   5
   3   8  15 8726.29 1249.62   4
   3   8  15 9139.74 1342.92   1
   3   8  16 15006.4 1701.37   4
   3   8  16 10299.1 1445.85   1
   3   8  17 342.485 330.303   4
   3   8  17 354.862 304.914   1
   3   8  18 22053.5 2204.45   1
   3   8  18 24604.6 2350.37   4
   3   8  19 237.997 477.522   4
   3   8  19-473.778 527.577   1
   3   8  20 12148.9 1804.71   4
   3   9 -14 13091.7 1876.95   2
   3   9 -13 3242.66 986.858   2
   3   9 -12 26915.8 2594.58   2
   3   9 -11 293.370 423.457   2
   3   9 -10 19720.4 2095.64   2
   3   9  -9 2907.25 844.535   2
   3   9  -8 8774.93 1362.85   2
   3   9  -8 8904.59 1076.91   5
   3   9  -7 21660.4 2085.12   2
   3   9  -7 21711.2 1688.16   5
   3   9  -6 1919.25 686.137   2
   3   9  -6 2211.70 537.744   5
   3   9  -5 25928.3 2199.37   2
   3   9  -5 23905.8 1820.68   5
   3   9  -4 454.794 425.752   2
   3   9  -4 701.974 389.235   5
   3   9  -3 12157.0 1498.92   2
   3   9  -3 14678.4 1456.62   5
   3   9  -2 29498.0 2308.08   2
   3   9  -2 30715.7 2120.42   5
   3   9  -1 17339.6 1762.11   2
   3   9  -1 15235.6 1494.32   5
   3   9   0 21621.4 1976.61   2
   3   9   0 18728.6 1669.39   5
   3   9   1 677.075 529.396   2
   3   9   1 562.076 379.240   5
   3   9   2 36423.0 2383.54   5
   3   9   2 42531.8 2737.52   2
   3   9   3 1950.40 564.880   5
   3   9   3 964.164 523.551   2
   3   9   4 45686.2 2719.84   5
   3   9   4 48402.7 2934.63   2
   3   9   5 42016.5 2612.29   5
   3   9   5 40580.3 2689.79   2
   3   9   6 2310.66 623.605   5
   3   9   6 1209.47 541.619   2
   3   9   7 37593.6 2533.35   5
   3   9   7 43835.8 2794.67   2
   3   9   8 598.403 475.349   2
   3   9   8 597.200 390.305   5
   3   9   9 15086.5 1600.83   5
   3   9  10 2806.38 734.431   5
   3   9  11 7871.63 1236.02   1
   3   9  11 6455.59 1060.03   5
   3   9  12 21034.0 1996.08   1
   3   9  12 23570.8 1841.88   4
   3   9  12 20980.8 1932.10   5
   3   9  13 1943.85 602.671   4
   3   9  13 1625.17 645.885   1
   3   9  13 2599.53 711.850   5
   3   9  14 31938.4 2575.96   1
   3   9  14 46417.0 2812.38   4
   3   9  15-343.477 342.259   4
   3   9  15 377.990 515.371   1
   3   9  16 23150.5 2149.87   4
   3   9  16 20787.6 2124.21   1
   3   9  17 3583.71 904.830   4
   3   9  17 2304.55 801.442   1
   3   9  18 3048.00 882.890   4
   3   9  18 2206.09 836.095   1
   3   9  19 11904.6 1722.91   4
   3  10 -12 13782.6 1919.85   2
   3  10 -11 7173.26 1379.86   2
   3  10 -10 2443.36 852.760   2
   3  10  -9 14455.4 1862.71   2
   3  10  -8 217.217 406.367   2
   3  10  -7 15563.2 1853.68   2
   3  10  -7 14078.6 1444.35   5
   3  10  -6 11673.6 1637.08   2
   3  10  -6 11124.3 1299.48   5
   3  10  -5 8572.60 1376.14   2
   3  10  -5 8011.08 1119.96   5
   3  10  -4 20589.0 2083.76   2
   3  10  -4 20332.3 1801.26   5
   3  10  -3 8002.79 1336.19   2
   3  10  -3 8412.09 1162.79   5
   3  10  -2 55257.1 3406.79   2
   3  10  -2 49138.9 2873.28   5
   3  10  -1 919.784 615.863   2
   3  10  -1 1365.49 475.518   5
   3  10   0 33977.0 2417.49   5
   3  10   0 37319.6 2742.59   2
   3  10   1 17568.8 1733.18   5
   3  10   1 21372.5 2062.27   2
   3  10   2 2275.93 638.750   5
   3  10   2 2606.16 831.008   2
   3  10   3 40719.1 2677.14   5
   3  10   3 40063.6 2828.80   2
   3  10   4 1925.46 585.340   5
   3  10   4 3028.30 864.759   2
   3  10   5 10144.4 1325.50   5
   3  10   5 11416.1 1478.12   2
   3  10   6 980.876 523.361   5
   3  10   6 1615.99 625.317   2
   3  10   7 11220.3 1441.09   5
   3  10   7 14556.1 1705.71   2
   3  10   8 13777.8 1608.04   5
   3  10   8 14630.4 1693.13   2
   3  10   9 3942.73 870.950   5
   3  10  10 20715.1 1984.98   5
   3  10  11 932.667 510.844   5
   3  10  11 2102.76 779.792   1
   3  10  12 23339.0 2211.72   1
   3  10  12 19656.5 1949.08   5
   3  10  13 1523.81 668.136   1
   3  10  14 12124.6 1657.76   1
   3  10  15 9567.34 1515.52   1
   3  10  16 1587.82 675.000   1
   3  11 -10 281.292 482.838   2
   3  11  -9 9984.26 1667.39   2
   3  11  -8 12349.8 1793.30   2
   3  11  -7 3703.35 1047.00   2
   3  11  -7 2812.60 687.172   5
   3  11  -6 24432.0 2466.35   2
   3  11  -6 23655.0 1987.98   5
   3  11  -5 3354.62 941.513   2
   3  11  -5 2234.45 651.685   5
   3  11  -4 11525.8 1648.04   2
   3  11  -4 11895.0 1424.21   5
   3  11  -3 1985.27 769.297   2
   3  11  -3 2007.68 632.451   5
   3  11  -2 11835.6 1649.89   2
   3  11  -2 10725.8 1384.84   5
   3  11  -1 27155.1 2244.03   5
   3  11  -1 31228.9 2671.14   2
   3  11   0 3421.79 913.457   2
   3  11   0 2511.39 717.129   5
   3  11   1 36098.2 2630.32   5
   3  11   1 46044.3 3187.92   2
   3  11   2-41.5504 368.347   5
   3  11   2 1003.51 626.465   2
   3  11   3 9178.68 1340.74   5
   3  11   3 8749.49 1386.84   2
   3  11   4 6205.15 1106.08   5
   3  11   4 5156.20 1103.87   2
   3  11   5 5417.66 1024.51   5
   3  11   5 7043.35 1280.88   2
   3  11   6 8624.12 1401.99   2
   3  11   6 7324.13 1216.89   5
   3  11   7 1689.48 679.286   2
   3  11   7 1565.16 594.963   5
   3  11   8 27671.1 2388.00   5
   3  11   8 30365.6 2577.56   2
   3  11   9 919.622 567.348   2
   3  11   9 2021.47 615.727   5
   3  11  10 12344.8 1668.97   1
   3  11  10 11685.1 1583.34   5
   3  11  11 7425.96 1270.60   5
   3  11  11 4254.21 988.540   1
   3  11  12 5961.05 1211.09   1
   3  11  13 7807.76 1335.33   1
   3  11  14 539.082 522.617   1
   3  12  -8 16463.9 2216.53   2
   3  12  -7 112.456 449.528   2
   3  12  -6 10273.8 1717.16   2
   3  12  -5 7640.98 1502.02   2
   3  12  -5 7346.96 1203.33   5
   3  12  -4 4028.36 1134.38   2
   3  12  -4 2843.26 755.608   5
   3  12  -3 19261.3 1947.03   5
   3  12  -3 22547.2 2451.98   2
   3  12  -2-393.094 441.888   2
   3  12  -2 509.817 377.254   5
   3  12  -1 10237.8 1627.90   2
   3  12  -1 8742.84 1341.18   5
   3  12   0 2332.80 704.977   5
   3  12   0 3169.73 1003.86   2
   3  12   1 15580.4 1808.29   5
   3  12   1 19218.6 2217.41   2
   3  12   2 12951.1 1645.47   5
   3  12   2 16687.9 2052.64   2
   3  12   3 4670.63 1026.57   5
   3  12   3 6579.71 1284.21   2
   3  12   4 21471.0 2141.29   5
   3  12   4 22677.7 2354.11   2
   3  12   5 1123.86 477.912   5
   3  12   5 1714.40 686.747   2
   3  12   6 4710.13 1064.55   2
   3  12   6 5714.38 1150.05   5
   3  12   7 2263.11 768.843   2
   3  12   7 1921.94 698.997   5
   3  12   8 13253.2 1751.26   5
   3  12   8 14534.8 1908.99   2
   3  12   9 9247.70 1456.94   5
   3  12  10 3064.39 939.236   1
   3  12  11 12089.2 1699.14   1
   3  12  12-3.28671 478.080   1
   3  13  -4-236.451 582.616   2
   3  13  -3 5238.74 1382.11   2
   3  13  -2 8882.74 1670.34   2
   3  13  -1 1615.19 681.165   5
   3  13  -1 2942.57 1033.33   2
   3  13   0 14535.0 1824.21   5
   3  13   0 14873.0 2054.80   2
   3  13   1 287.567 421.497   5
   3  13   1 1118.68 559.672   2
   3  13   2 18866.0 2090.73   5
   3  13   2 21575.9 2396.24   2
   3  13   3 98.1067 437.058   5
   3  13   3 158.737 540.625   2
   3  13   4 18342.4 2095.07   5
   3  13   4 16626.8 2100.38   2
   3  13   5 7982.74 1376.17   5
   3  13   5 7667.15 1449.29   2
   3  13   6 4603.02 1104.51   2
   3  13   7 6506.73 1315.65   2
   3  13   8 509.835 575.456   2
   3  13   9 9484.30 1578.02   1
   4 -13  -2 5979.27 1348.48   6
   4 -13  -1 1079.48 504.493   6
   4 -13   0 5822.14 1324.12   6
   4 -13   1 3596.76 1089.64   6
   4 -13   2 732.295 632.234   6
   4 -13   3 7797.21 1510.12   6
   4 -13   4 26.8816 651.675   6
   4 -12  -6 19207.5 2373.14   6
   4 -12  -5 6932.07 1416.80   6
   4 -12  -4 10239.1 1749.77   6
   4 -12  -3-310.734 515.310   6
   4 -12  -2 4054.16 1128.44   6
   4 -12  -1 2910.85 985.421   6
   4 -12   0-33.3961 446.460   6
   4 -12   1 14789.9 1957.47   6
   4 -12   2 631.731 564.072   6
   4 -12   3 14137.9 1914.21   6
   4 -12   4 8031.85 1457.28   6
   4 -12   5 8297.59 1527.28   6
   4 -12   6 4163.22 1100.69   6
   4 -12   7 1591.75 750.050   6
   4 -11  -9 3624.14 1042.79   6
   4 -11  -8 15534.5 2084.38   6
   4 -11  -7-94.9201 465.384   6
   4 -11  -6 6828.32 1361.07   6
   4 -11  -5 11692.2 1747.04   6
   4 -11  -4 4248.45 1109.46   6
   4 -11  -3 17003.8 2086.53   6
   4 -11  -2 71.2502 482.287   6
   4 -11  -1 11163.0 1697.79   6
   4 -11   0 606.813 473.408   6
   4 -11   1 19202.0 2147.77   6
   4 -11   2 1879.76 720.861   6
   4 -11   3 8767.14 1433.68   6
   4 -11   4 19025.7 2145.70   6
   4 -11   5 335.737 450.896   6
   4 -11   6 14665.5 1955.76   6
   4 -11   7 2794.43 890.269   6
   4 -11   8 10411.7 1693.13   6
   4 -11   8 13916.5 1896.58   4
   4 -11   9 915.468 569.475   4
   4 -11  10 2188.25 852.726   4
   4 -11  11 10170.2 1685.03   4
   4 -10 -11 1487.59 872.809   6
   4 -10 -10 19303.8 2303.12   6
   4 -10  -9 13661.9 1945.59   6
   4 -10  -8 13127.6 1848.69   6
   4 -10  -7 10816.6 1653.18   6
   4 -10  -6 1564.13 514.938   6
   4 -10  -5 22726.7 2309.19   6
   4 -10  -4 1340.03 662.851   6
   4 -10  -3 26532.2 2462.28   6
   4 -10  -2 5647.53 1149.45   6
   4 -10  -1 9773.25 1508.69   6
   4 -10   0 24011.5 2344.61   6
   4 -10   1 331.386 397.429   6
   4 -10   2 15782.8 1872.30   6
   4 -10   3-22.0018 361.834   6
   4 -10   4 28521.4 2512.04   6
   4 -10   5 2109.96 719.575   6
   4 -10   6 8236.96 1354.59   6
   4 -10   7 9818.20 1523.86   6
   4 -10   8-484.539 596.276   6
   4 -10   8 259.181 475.571   4
   4 -10   9 12970.9 1784.57   4
   4 -10  10 1336.81 753.657   4
   4 -10  11 10357.2 1688.12   4
   4 -10  12 18250.9 2255.16   4
   4 -10  13 3540.37 1040.12   4
   4 -10  14 6365.52 1380.31   4
   4  -9 -13 1956.79 836.084   6
   4  -9 -12 15929.6 2132.90   6
   4  -9 -11 8969.65 1599.97   6
   4  -9 -10 3000.36 962.048   6
   4  -9  -9 27206.9 2581.69   6
   4  -9  -8 287.675 447.988   6
   4  -9  -7 31770.1 2705.74   6
   4  -9  -6 2244.23 721.781   6
   4  -9  -5 13084.5 1688.86   6
   4  -9  -4 27023.4 2372.57   6
   4  -9  -3 10835.5 1506.63   6
   4  -9  -2 16937.4 1875.68   6
   4  -9  -1 1158.90 554.788   6
   4  -9   0 35582.8 2710.38   6
   4  -9   1 4557.96 1005.35   6
   4  -9   2 13926.3 1690.10   6
   4  -9   3 637.760 499.337   6
   4  -9   4 13203.8 1629.95   6
   4  -9   5 14710.0 1746.92   6
   4  -9   6 3884.37 879.292   6
   4  -9   7 37598.1 2892.06   6
   4  -9   8 28596.5 2575.99   6
   4  -9   9 7540.35 1334.20   4
   4  -9   9 7830.36 1374.63   6
   4  -9  10 16885.4 2004.91   4
   4  -9  11 1989.68 779.325   4
   4  -9  12 18572.7 2213.65   4
   4  -9  13 81.7104 404.197   4
   4  -9  14 9126.14 1583.94   4
   4  -9  15 4206.56 1155.25   4
   4  -8 -14 2441.03 912.534   6
   4  -8 -13 10547.7 1701.88   6
   4  -8 -12 4058.88 1120.57   6
   4  -8 -11 18677.4 2180.61   6
   4  -8 -10 3154.85 902.189   6
   4  -8  -9 33463.0 2765.39   6
   4  -8  -8 25129.7 2336.86   6
   4  -8  -7 18439.1 1966.62   6
   4  -8  -6 17401.2 1900.81   6
   4  -8  -5 1727.62 617.548   6
   4  -8  -4 23957.1 2145.00   6
   4  -8  -3 3367.50 837.792   6
   4  -8  -2 16155.2 1721.52   6
   4  -8  -1 12066.7 1482.02   6
   4  -8   0 17782.4 1801.56   6
   4  -8   1 45380.2 2899.08   6
   4  -8   2 488.662 449.204   6
   4  -8   3 42226.2 2804.21   6
   4  -8   4 8439.86 1254.39   6
   4  -8   5 17036.2 1791.86   6
   4  -8   6 21739.5 2064.90   6
   4  -8   7 2457.79 745.597   6
   4  -8   8 29634.8 2485.05   6
   4  -8   9 362.990 436.876   4
   4  -8   9-209.557 431.607   6
   4  -8  10 24802.2 2354.25   4
   4  -8  11 3790.09 993.866   4
   4  -8  12 16329.3 2007.00   4
   4  -8  13 13162.5 1853.49   4
   4  -8  14 1654.24 636.410   4
   4  -8  15 17066.0 2197.68   4
   4  -8  16 1104.63 662.013   4
   4  -7 -15 17000.9 2199.29   6
   4  -7 -14-25.4842 421.320   6
   4  -7 -13 23118.8 2452.58   6
   4  -7 -12 1821.15 726.749   6
   4  -7 -11 6372.51 1259.62   6
   4  -7 -10 16192.9 1882.61   6
   4  -7  -9 2040.32 711.991   6
   4  -7  -8 30037.9 2471.99   6
   4  -7  -7-195.142 420.992   6
   4  -7  -6 30842.4 2402.92   6
   4  -7  -5 7956.70 1199.81   6
   4  -7  -4 29375.4 2268.62   6
   4  -7  -3 39752.2 2601.15   6
   4  -7  -2 7986.25 1152.88   6
   4  -7  -1 57216.4 3103.01   6
   4  -7   0 10440.2 1334.80   6
   4  -7   1 45723.5 2773.63   6
   4  -7   2 53488.6 3014.71   6
   4  -7   3 7276.07 1087.24   6
   4  -7   4 31289.0 2301.21   6
   4  -7   5 862.140 422.444   6
   4  -7   6 9839.08 1302.54   6
   4  -7   7 2045.86 673.027   6
   4  -7   8 30277.8 2415.06   6
   4  -7   9 14292.2 1704.83   6
   4  -7   9 15754.4 1757.42   4
   4  -7  10 10545.5 1462.33   4
   4  -7  11 36837.9 2819.75   4
   4  -7  12 13.7466 293.550   4
   4  -7  13 22775.3 2358.71   4
   4  -7  14 3358.22 1000.87   4
   4  -7  15 22922.9 2456.09   4
   4  -7  16 9922.97 1679.41   4
   4  -7  17 2096.32 915.037   4
   4  -6 -16 1571.24 783.797   6
   4  -6 -15 15071.3 2014.01   6
   4  -6 -14 12911.0 1848.19   6
   4  -6 -13 3274.10 970.371   6
   4  -6 -12 22757.3 2293.46   6
   4  -6 -11 154.626 389.311   6
   4  -6 -10 19381.4 1978.63   6
   4  -6  -9 2971.78 772.255   6
   4  -6  -8 28615.2 2311.19   6
   4  -6  -7 21386.9 1943.44   6
   4  -6  -6 13486.7 1510.22   6
   4  -6  -5 59555.0 3172.75   6
   4  -6  -4 1269.24 504.331   6
   4  -6  -3 50432.6 2821.62   6
   4  -6  -2 46590.8 2665.69   6
   4  -6  -1 22576.7 1800.84   6
   4  -6   0 77390.7 3488.69   6
   4  -6   1 666.858 424.069   6
   4  -6   2 27200.3 2005.36   6
   4  -6   3 49.5734 284.655   6
   4  -6   4 41684.6 2551.01   6
   4  -6   5 15443.6 1550.82   6
   4  -6   6 26325.6 2048.67   6
   4  -6   7 21374.7 1876.02   6
   4  -6   8 653.800 502.752   6
   4  -6   9 46780.8 2960.64   6
   4  -6   9 46379.1 2917.94   4
   4  -6  10 1740.56 660.438   4
   4  -6  11 31322.5 2522.99   4
   4  -6  12 11287.7 1556.86   4
   4  -6  13 13059.9 1713.82   4
   4  -6  14 13760.2 1818.53   4
   4  -6  15 1177.63 645.786   4
   4  -6  16 19235.1 2233.83   4
   4  -6  17 940.382 638.522   4
   4  -6  18 4157.27 1104.74   4
   4  -5 -17 9968.05 1709.43   6
   4  -5 -16 19292.9 2288.19   6
   4  -5 -15 1640.45 716.979   6
   4  -5 -14 21979.0 2299.11   6
   4  -5 -13-28.5650 397.916   6
   4  -5 -12 18491.4 1986.62   6
   4  -5 -11 14116.4 1695.59   6
   4  -5 -10 11028.3 1449.76   6
   4  -5  -9 41722.4 2770.93   6
   4  -5  -8 1300.90 565.516   6
   4  -5  -7 49919.1 2883.92   6
   4  -5  -6 18273.8 1680.55   6
   4  -5  -5 20531.5 1748.76   6
   4  -5  -4 56188.7 2889.06   6
   4  -5  -3 5504.15 880.386   6
   4  -5  -2 41250.7 2375.35   6
   4  -5  -1 212.638 326.071   6
   4  -5   0 82602.4 3403.46   6
   4  -5   1 5742.72 887.827   6
   4  -5   2 41822.9 2376.88   6
   4  -5   3 14675.0 1395.79   6
   4  -5   4 2949.22 665.617   6
   4  -5   5 81359.0 3489.79   6
   4  -5   6 1979.76 571.058   6
   4  -5   7 45740.2 2660.92   6
   4  -5   8 15467.3 1598.12   6
   4  -5   9 26397.3 2116.07   6
   4  -5   9 28505.2 2173.16   4
   4  -5  10 17483.0 1752.74   4
   4  -5  11 562.723 450.050   4
   4  -5  12 24018.2 2199.60   4
   4  -5  13 916.361 494.872   4
   4  -5  14 28163.6 2518.39   4
   4  -5  15 5385.91 1137.60   4
   4  -5  16 22974.2 2399.79   4
   4  -5  17 13859.8 1925.53   4
   4  -5  18 2813.42 918.779   4
   4  -5  19 11739.8 1849.03   4
   4  -4 -17-513.752 658.994   6
   4  -4 -16 21036.6 2331.55   6
   4  -4 -15 7594.58 1329.85   6
   4  -4 -14 8281.32 1384.25   6
   4  -4 -13 25914.8 2349.27   6
   4  -4 -12 508.530 438.710   6
   4  -4 -11 65615.3 3565.85   6
   4  -4 -10-294.544 395.996   6
   4  -4  -9 41877.1 2662.35   6
   4  -4  -8 9061.53 1191.78   6
   4  -4  -7 15543.6 1512.11   6
   4  -4  -6 23133.6 1811.59   6
   4  -4  -5 4319.44 776.735   6
   4  -4  -4 41818.5 2340.91   6
   4  -4  -3 1639.15 465.596   6
   4  -4  -2 41510.4 2246.46   6
   4  -4  -1 11098.5 1142.70   6
   4  -4   0 70750.5 2969.07   6
   4  -4   1 78691.0 3160.35   6
   4  -4   2 1916.77 514.930   6
   4  -4   3 45386.4 2356.29   6
   4  -4   4 48776.0 2487.12   6
   4  -4   5 55277.2 2683.22   6
   4  -4   6 25238.8 1808.48   6
   4  -4   7 22294.2 1751.58   6
   4  -4   8 48450.8 2706.55   6
   4  -4   9 33.3120 263.208   4
   4  -4  10 94744.1 4125.08   4
   4  -4  11 4013.31 856.220   4
   4  -4  12 20432.0 1980.17   4
   4  -4  13 14429.4 1681.63   4
   4  -4  14 5335.10 1069.58   4
   4  -4  15 27476.5 2471.64   4
   4  -4  16 319.957 392.559   4
   4  -4  17 35860.5 3050.73   4
   4  -4  18 664.223 548.215   4
   4  -4  19 6850.95 1413.82   4
   4  -4  20 19856.0 2448.40   4
   4  -3 -12 546.357 390.196   6
   4  -3 -11 14947.9 1625.55   6
   4  -3 -10 10951.7 1349.84   6
   4  -3  -9 932.853 442.222   6
   4  -3  -8 25413.2 1912.36   6
   4  -3  -7 3102.18 694.668   6
   4  -3  -6 36208.1 2177.22   6
   4  -3  -5 22955.8 1671.25   6
   4  -3  -4 14883.3 1308.82   6
   4  -3  -3 68898.8 2873.01   6
   4  -3  -2 1644.48 477.400   6
   4  -3  -1 66243.3 2694.87   6
   4  -3  -1 63209.7 1738.30   2
   4  -3   0 11430.2 1065.47   6
   4  -3   0 11770.9 575.252   2
   4  -3   1 151786. 2836.75   2
   4  -3   1 148078. 4377.53   6
   4  -3   2 260.158 246.409   6
   4  -3   3 53068.5 2428.98   6
   4  -3   4 69358.1 2839.83   6
   4  -3   5 582.079 378.487   6
   4  -3   6 146549. 4571.43   6
   4  -3   7 5068.64 795.383   6
   4  -3   8 116167. 4199.65   4
   4  -3   8 110849. 4132.47   6
   4  -3   9 18037.7 1608.59   4
   4  -3  10 30033.4 2168.11   4
   4  -3  11 39383.9 2612.50   4
   4  -3  12-198.520 451.395   4
   4  -3  13 36843.5 2660.55   4
   4  -3  14 6191.90 1137.72   4
   4  -3  15 17911.7 1946.41   4
   4  -3  16 11478.8 1621.81   4
   4  -3  17 5400.63 1136.61   4
   4  -3  18 15155.4 1967.66   4
   4  -3  19-136.496 414.213   4
   4  -3  20 21553.1 2505.48   4
   4  -2  -9 12266.8 1326.41   6
   4  -2  -8 51880.6 2692.33   6
   4  -2  -7 18552.6 1524.74   6
   4  -2  -6 9329.10 1046.29   6
   4  -2  -5 56790.0 2557.89   6
   4  -2  -4 11980.4 1100.54   6
   4  -2  -3 86623.5 3092.29   6
   4  -2  -2 26882.0 1583.44   6
   4  -2  -2 25536.0 982.974   2
   4  -2  -1 46916.2 2107.79   6
   4  -2  -1 49303.8 1300.24   2
   4  -2   0 32744.3 814.340   2
   4  -2   0 36600.8 1792.46   6
   4  -2   1 57930.5 2329.32   6
   4  -2   2 71259.6 2654.31   6
   4  -2   3 6538.68 771.434   6
   4  -2   4 217039. 3823.94   1
   4  -2   4 215326. 5415.99   6
   4  -2   5 72393.2 2768.62   6
   4  -2   5 65004.7 1335.69   1
   4  -2   6 46232.6 2268.80   6
   4  -2   7 63282.6 2796.70   6
   4  -2   8 4014.08 752.344   4
   4  -2   9 68335.7 3157.21   4
   4  -2  10 974.405 438.390   4
   4  -2  11 67319.6 3344.56   4
   4  -2  12 4532.21 876.977   4
   4  -2  13 11170.4 1415.06   4
   4  -2  14 36243.4 2646.55   4
   4  -2  15 112.599 350.013   4
   4  -2  16 33178.5 2706.18   4
   4  -2  17 2942.34 870.231   4
   4  -2  18 15691.5 1990.61   4
   4  -2  19 6468.67 1329.74   4
   4  -2  20 8580.60 1613.32   4
   4  -2  21 13552.5 1989.36   4
   4  -1  -6 8240.19 934.754   6
   4  -1  -5 89402.3 3148.85   6
   4  -1  -4 27941.1 1611.68   6
   4  -1  -3 61860.1 2420.65   6
   4  -1  -2 98080.5 3084.65   6
   4  -1  -1 1939.26 416.102   6
   4  -1   0 135249. 3648.22   6
   4  -1   1 39101.3 1738.37   6
   4  -1   2 56916.4 2181.18   6
   4  -1   3 61207.9 2291.72   6
   4  -1   4 5288.61 670.905   6
   4  -1   5 126072. 3704.56   6
   4  -1   6 2371.63 492.023   6
   4  -1   7 106482. 3608.83   6
   4  -1   7 106277. 3612.77   4
   4  -1   8 6398.50 315.415   1
   4  -1   8 8719.47 1011.95   4
   4  -1   9 59603.4 2824.14   4
   4  -1  10 28689.1 2002.95   4
   4  -1  11 7337.41 1072.18   4
   4  -1  12 75573.7 3560.76   4
   4  -1  13-8.92933 265.652   4
   4  -1  14 54272.5 3205.83   4
   4  -1  15 12836.4 1601.13   4
   4  -1  16 10130.4 1456.44   4
   4  -1  17 16212.6 1903.52   4
   4  -1  18 499.862 327.340   4
   4  -1  19 19740.2 2250.72   4
   4  -1  20 149.793 424.875   4
   4  -1  21 10643.5 1745.79   4
   4   0  -5 28427.2 1603.39   6
   4   0  -4 99615.1 3091.04   6
   4   0  -3 477.453 268.249   6
   4   0  -2 77022.2 2483.41   6
   4   0  -1 215189. 3865.75   2
   4   0  -1 211590. 4726.34   6
   4   0   0 4470.51 515.119   6
   4   0   0 5261.64 317.994   2
   4   0   1 120862. 3079.95   6
   4   0   1 109150. 2030.23   2
   4   0   2 18125.4 1068.13   6
   4   0   3 147053. 3677.22   6
   4   0   4 4357.46 561.513   6
   4   0   5 127195. 3555.96   6
   4   0   6 20992.9 1362.09   4
   4   0   6 20522.9 1329.59   6
   4   0   7 52567.4 2338.57   4
   4   0   8 59531.0 2632.23   4
   4   0   9 4249.86 393.808   1
   4   0   9 3554.32 680.863   4
   4   0  10 67589.8 1857.79   1
   4   0  10 68336.5 3077.89   4
   4   0  11 971.355 403.045   4
   4   0  11 842.472 201.507   1
   4   0  12 31948.1 2198.91   4
   4   0  13 37168.4 2482.41   4
   4   0  14 15676.2 1661.10   4
   4   0  15 36838.3 2655.30   4
   4   0  16 643.671 443.385   4
   4   0  17 11088.8 1578.01   4
   4   0  18 3357.32 887.788   4
   4   0  19 9404.86 1517.67   4
   4   0  20 14293.0 1939.72   4
   4   0  21 1567.82 733.819   4
   4   1  -3 192034. 4380.78   6
   4   1  -2 15869.5 835.762   2
   4   1  -2 16753.7 978.131   6
   4   1  -1 214904. 4198.11   2
   4   1  -1 218619. 4526.42   6
   4   1   0 2651.63 299.543   2
   4   1   0 2699.47 362.967   6
   4   1   1 24671.1 1114.62   6
   4   1   1 25885.1 972.053   2
   4   1   2 54893.0 1765.72   6
   4   1   2 51556.6 1471.87   2
   4   1   3 23085.2 1101.13   6
   4   1   3 20452.8 861.481   2
   4   1   4 108321. 2905.73   6
   4   1   5 25391.2 1369.55   4
   4   1   6 117348. 3440.43   4
   4   1   7 28286.6 1621.44   4
   4   1   8 47126.2 2239.57   4
   4   1   9 33461.8 1946.55   4
   4   1  10 21504.4 1109.62   1
   4   1  10 20868.9 1603.96   4
   4   1  11 34425.7 1475.29   1
   4   1  11 33077.9 2113.24   4
   4   1  12 625.956 239.368   1
   4   1  12 942.472 433.758   4
   4   1  13 60333.3 2158.75   1
   4   1  13 61208.3 3157.07   4
   4   1  14 196.252 312.553   4
   4   1  15 39549.3 2707.34   4
   4   1  16 7140.06 1220.88   4
   4   1  17 2294.15 763.279   4
   4   1  18 36999.0 2909.76   4
   4   1  19 202.400 372.531   4
   4   1  20 20615.7 2329.41   4
   4   1  21 3277.55 1045.63   4
   4   2  -3 66156.5 2175.25   2
   4   2  -3 66954.6 2074.44   6
   4   2  -2 296.530 130.371   2
   4   2  -2 656.843 197.658   6
   4   2  -1 89697.0 2472.91   2
   4   2  -1 91982.5 2269.49   6
   4   2   0 68089.2 1793.52   6
   4   2   0 66636.4 2031.30   2
   4   2   1 8408.33 536.032   6
   4   2   1 7435.78 617.126   2
   4   2   2 129778. 2791.47   6
   4   2   2 126401. 3081.03   2
   4   2   3 880.003 205.648   6
   4   2   3 815.145 223.916   2
   4   2   4 64459.4 2010.56   2
   4   2   4 64944.2 2049.87   4
   4   2   5 14190.6 953.449   4
   4   2   6 128897. 3563.49   4
   4   2   7 51906.8 2176.33   4
   4   2   8 28592.7 1664.85   4
   4   2   9 98478.2 3436.80   4
   4   2  10 1144.89 387.791   4
   4   2  11 22438.2 1307.48   1
   4   2  11 23085.7 1708.05   4
   4   2  12 760.404 329.077   4
   4   2  12 639.516 284.270   1
   4   2  13 6257.33 977.875   4
   4   2  13 6802.30 694.502   5
   4   2  13 6702.08 739.401   1
   4   2  14 46134.8 2090.44   1
   4   2  14 46391.3 1875.92   5
   4   2  14 50695.2 2909.25   4
   4   2  15 9500.48 941.073   1
   4   2  15 9314.63 1278.32   4
   4   2  16 34743.5 2591.65   4
   4   2  17 985.839 533.277   4
   4   2  18 25571.1 2406.40   4
   4   2  19 17349.2 2038.25   4
   4   2  20 8802.28 1508.38   4
   4   2  21 22738.9 2490.13   4
   4   3  -6 3700.02 596.267   2
   4   3  -5 24443.2 1451.48   2
   4   3  -4 23014.0 1349.04   2
   4   3  -3 4811.94 605.532   2
   4   3  -2 123633. 3362.24   2
   4   3  -2 121381. 2699.07   6
   4   3  -2 120061. 2739.71   4
   4   3  -1 56040.6 1445.96   6
   4   3  -1 54440.5 2020.56   2
   4   3  -1 53532.6 1473.37   4
   4   3   0 53731.4 1299.27   6
   4   3   0 59226.3 2073.87   2
   4   3   0 53680.6 1373.88   4
   4   3   1 10286.1 841.677   2
   4   3   1 9165.06 420.255   6
   4   3   2 166126. 4050.99   2
   4   3   3 129031. 3449.57   2
   4   3   3 132853. 2897.05   4
   4   3   4 41263.7 1750.49   2
   4   3   4 45965.2 1561.33   4
   4   3   5 187634. 4505.76   2
   4   3   5 194847. 4259.41   4
   4   3   6 29590.1 1442.31   4
   4   3   7 58987.2 2237.56   4
   4   3   8 1042.61 331.027   4
   4   3   9 15030.4 1213.64   4
   4   3  10 16658.9 1361.77   4
   4   3  11 813.542 425.256   4
   4   3  12 37229.5 1895.83   1
   4   3  12 33883.1 1761.63   5
   4   3  12 40019.7 2330.84   4
   4   3  13 3772.79 721.745   4
   4   3  13 2741.05 531.355   1
   4   3  13 2958.38 505.863   5
   4   3  14 51753.1 2191.75   5
   4   3  14 57562.1 3085.71   4
   4   3  14 51693.0 2382.80   1
   4   3  15 6637.64 1085.48   4
   4   3  15 5291.31 772.051   1
   4   3  16 27337.0 1787.96   1
   4   3  16 29287.9 2345.09   4
   4   3  17 19122.2 1963.80   4
   4   3  18 7920.16 1348.62   4
   4   3  19 39109.8 3060.87   4
   4   3  20 1011.91 680.876   4
   4   3  21 18317.4 2208.23   4
   4   4  -9 33185.3 2092.05   2
   4   4  -8 3803.56 712.564   2
   4   4  -7 9568.41 1049.51   2
   4   4  -6 54594.1 2474.70   2
   4   4  -5 14913.2 1207.69   2
   4   4  -4 52024.5 2280.39   2
   4   4  -3 6917.07 790.394   2
   4   4  -3 7145.96 542.385   4
   4   4  -2 85069.0 2908.39   2
   4   4  -2 86251.0 1999.27   4
   4   4  -1 16562.5 548.588   6
   4   4  -1 18670.8 1247.81   2
   4   4  -1 17546.1 601.097   4
   4   4   0 114996. 3438.52   2
   4   4   1 85356.8 2891.03   2
   4   4   2 75639.3 2639.60   2
   4   4   2 65692.5 1349.51   4
   4   4   3 148923. 4059.13   2
   4   4   3 144666. 2827.94   4
   4   4   4 4141.24 625.203   2
   4   4   4 5510.06 453.547   4
   4   4   5 42857.5 1980.32   2
   4   4   5 44037.5 1561.94   4
   4   4   6 9630.97 754.605   4
   4   4   6 11030.0 977.899   2
   4   4   7 4560.51 575.886   4
   4   4   8 56482.6 2271.76   4
   4   4   9 236.080 264.600   4
   4   4  10 73901.1 2930.88   4
   4   4  11 7652.98 870.096   5
   4   4  11 8915.91 1034.75   4
   4   4  12 48262.0 2336.74   1
   4   4  12 48171.4 2279.35   5
   4   4  12 50918.7 2625.92   4
   4   4  13 10504.1 1105.57   1
   4   4  13 11318.5 1063.74   5
   4   4  13 10817.3 1236.95   4
   4   4  14 7812.09 881.951   5
   4   4  14 8869.62 1025.35   1
   4   4  14 9085.09 1217.07   4
   4   4  15 27792.8 1660.11   5
   4   4  15 29397.4 1926.86   1
   4   4  16 260.588 382.483   4
   4   4  16 497.087 331.721   1
   4   4  17 29076.8 2019.62   1
   4   4  17 29215.0 2442.15   4
   4   4  18 5531.10 1153.67   4
   4   4  19 20347.3 2187.27   4
   4   4  20 10450.7 1620.89   4
   4   4  21 5767.45 1269.99   4
   4   5 -17 5751.41 1193.09   2
   4   5 -16 4809.23 1079.69   2
   4   5 -15 25763.6 2354.51   2
   4   5 -14 4619.54 972.146   2
   4   5 -13 30231.2 2387.16   2
   4   5 -12 2436.31 671.691   2
   4   5 -11 27903.0 2133.99   2
   4   5 -10 15384.5 1540.38   2
   4   5  -9 11859.4 1331.65   2
   4   5  -8 51964.3 2705.80   2
   4   5  -7 6599.67 914.563   2
   4   5  -6 50192.6 2511.94   2
   4   5  -5 3594.06 639.720   2
   4   5  -4 55196.4 2532.30   2
   4   5  -3 31079.6 1152.60   6
   4   5  -3 31146.8 1843.15   2
   4   5  -3 31850.2 1086.40   4
   4   5  -2 33310.9 1856.84   2
   4   5  -2 29881.5 917.640   6
   4   5  -1 115190. 3736.48   2
   4   5   0 1644.41 416.830   2
   4   5   1 57978.3 2516.33   2
   4   5   2 19371.3 1413.43   2
   4   5   3 52538.1 2377.95   2
   4   5   3 43005.0 976.289   4
   4   5   4 30164.9 1797.64   2
   4   5   4 35498.6 1105.01   4
   4   5   5 28222.5 1716.19   2
   4   5   5 27757.6 1131.31   4
   4   5   6 80519.3 2340.12   4
   4   5   6 71829.2 2909.77   2
   4   5   7 1749.50 351.973   4
   4   5   7 1686.13 462.013   2
   4   5   8 63900.9 2387.15   4
   4   5   9 15428.9 1314.01   5
   4   5   9 17717.2 1273.58   4
   4   5  10 30160.3 1870.75   5
   4   5  10 29262.6 1763.28   4
   4   5  11 36653.1 2086.57   5
   4   5  11 34419.4 2039.20   4
   4   5  12 2886.36 620.063   4
   4   5  12 1785.16 485.508   5
   4   5  13 45429.8 2455.77   1
   4   5  13 43950.8 2302.86   5
   4   5  13 48879.7 2684.05   4
   4   5  14 1897.41 535.456   4
   4   5  14 1175.74 432.039   1
   4   5  14 1439.45 432.681   5
   4   5  15 18897.5 1469.40   5
   4   5  15 22668.2 1765.80   1
   4   5  15 21709.0 1919.90   4
   4   5  16 6557.47 981.378   1
   4   5  16 5834.61 1063.68   4
   4   5  17 7731.63 1244.36   4
   4   5  17 7926.29 1097.87   1
   4   5  18 7775.26 1306.96   4
   4   5  18 6665.85 1034.43   1
   4   5  19 27.7303 398.899   4
   4   5  20 7086.65 1336.24   4
   4   5  21 924.580 572.020   4
   4   6 -16 1152.54 642.946   2
   4   6 -15 13705.6 1778.67   2
   4   6 -14 4845.57 1085.75   2
   4   6 -13 11432.6 1518.95   2
   4   6 -12 20838.7 1991.95   2
   4   6 -11 7147.53 1152.93   2
   4   6 -10 29452.1 2238.78   2
   4   6  -9 240.641 270.229   2
   4   6  -9-37.1104 156.616   5
   4   6  -8 34957.1 2308.36   2
   4   6  -8 29949.4 1764.80   5
   4   6  -7 29183.0 2072.29   2
   4   6  -6 33523.4 2158.65   2
   4   6  -5 80355.7 3394.72   2
   4   6  -4-75.6545 261.579   2
   4   6  -3 64620.5 2918.66   2
   4   6  -2 6652.24 352.945   6
   4   6  -2 8670.90 1020.96   2
   4   6  -1 22959.8 1675.32   2
   4   6   0 25837.2 1775.29   2
   4   6   1 32419.2 1993.27   2
   4   6   2 75104.8 3142.04   2
   4   6   3 3572.25 649.827   2
   4   6   4 75027.9 3134.01   2
   4   6   5 1134.72 224.918   4
   4   6   5 1621.83 505.486   2
   4   6   6 51191.1 2568.96   5
   4   6   6 54225.7 1811.77   4
   4   6   6 54789.4 2642.46   2
   4   6   7 21134.7 1627.61   5
   4   6   7 24014.8 1254.26   4
   4   6   7 20446.9 1597.46   2
   4   6   8 9739.23 1107.65   5
   4   6   8 10408.0 901.930   4
   4   6   8 10418.0 1162.64   2
   4   6   9 34121.9 2098.11   5
   4   6   9 33081.2 1755.31   4
   4   6  10 1493.94 416.953   4
   4   6  10 508.192 322.121   5
   4   6  11 56894.3 2796.93   5
   4   6  11 62999.9 2770.24   4
   4   6  12 6142.25 903.152   5
   4   6  12 7165.77 960.963   4
   4   6  13 25242.9 1918.52   1
   4   6  13 27095.8 1882.53   5
   4   6  13 30427.9 2066.65   4
   4   6  14 3961.42 789.506   1
   4   6  14 3935.13 801.307   4
   4   6  14 4558.71 765.434   5
   4   6  15 1715.82 625.440   4
   4   6  15 1676.49 584.174   1
   4   6  15 579.228 326.805   5
   4   6  16 2017.24 630.545   4
   4   6  16 2776.58 715.483   1
   4   6  17 1637.99 546.152   4
   4   6  17 1666.58 536.775   1
   4   6  18 9710.11 1441.47   4
   4   6  18 9197.99 1281.46   1
   4   6  19 19007.5 1871.48   1
   4   6  19 19036.7 2111.01   4
   4   6  20 8982.59 1511.84   4
   4   6  21 19621.8 2289.60   4
   4   7 -15 3153.87 869.508   2
   4   7 -14 31583.6 2730.00   2
   4   7 -13-146.885 376.050   2
   4   7 -12 22114.9 2157.65   2
   4   7 -11 3047.44 767.444   2
   4   7 -10 16645.9 1781.86   2
   4   7  -9 20730.6 1923.04   2
   4   7  -8 595.636 511.703   2
   4   7  -8 1610.48 467.335   5
   4   7  -7 57106.8 3096.93   2
   4   7  -7 53337.8 2570.58   5
   4   7  -6 1414.73 571.454   2
   4   7  -6 1125.72 426.123   5
   4   7  -5 65781.4 3206.58   2
   4   7  -5 57197.1 2708.88   5
   4   7  -4 28067.7 2035.69   2
   4   7  -4 24649.2 1737.75   5
   4   7  -3 30815.1 2105.26   2
   4   7  -3 29358.2 1919.90   5
   4   7  -2 39597.7 2382.10   2
   4   7  -2 35768.5 2140.95   5
   4   7  -1 7827.04 1073.09   2
   4   7  -1 7439.80 966.576   5
   4   7   0 18429.7 1616.86   2
   4   7   0 16879.3 1468.95   5
   4   7   1 2701.18 647.527   2
   4   7   1 1481.98 478.907   5
   4   7   2 76493.2 3383.19   2
   4   7   2 70956.2 3167.65   5
   4   7   3 44356.4 2470.52   5
   4   7   3 47113.8 2615.69   2
   4   7   4 41384.9 2390.52   5
   4   7   4 41062.9 2423.64   2
   4   7   5 5949.98 901.924   5
   4   7   5 4366.91 825.375   2
   4   7   6 2741.86 632.486   5
   4   7   6 2741.37 380.961   4
   4   7   6 2549.14 625.458   2
   4   7   7 30399.1 2070.98   5
   4   7   7 33016.7 1487.66   4
   4   7   7 26918.6 1970.26   2
   4   7   8 387.896 199.869   4
   4   7   8 95.0065 225.336   5
   4   7   8 5.66043 323.277   2
   4   7   9 20675.6 1720.61   5
   4   7   9 22218.9 1409.31   4
   4   7  10 17191.1 1588.03   5
   4   7  10 16922.5 1317.58   4
   4   7  11 16362.9 1542.52   5
   4   7  11 16048.6 1355.62   4
   4   7  12 21170.4 1745.76   5
   4   7  12 22490.1 1703.97   4
   4   7  13 165.614 267.024   4
   4   7  13-324.233 299.691   5
   4   7  13-86.5875 286.575   1
   4   7  14 28853.1 2198.22   1
   4   7  14 26364.4 1994.59   5
   4   7  14 30073.5 2165.05   4
   4   7  15 7804.99 1153.11   4
   4   7  15 5944.64 1003.94   1
   4   7  15 7218.64 1037.84   5
   4   7  16 5834.20 1046.82   4
   4   7  16 4812.73 855.741   5
   4   7  16 6274.03 1089.33   1
   4   7  17 15999.6 1793.15   4
   4   7  17 15686.1 1712.94   1
   4   7  18 5832.75 1142.23   4
   4   7  18 7120.37 1174.85   1
   4   7  19 29687.1 2457.00   1
   4   7  19 31260.9 2683.21   4
   4   7  20 2461.76 838.059   4
   4   8 -14 10211.3 1604.32   2
   4   8 -13 17140.8 2030.65   2
   4   8 -12 9064.79 1475.60   2
   4   8 -11 17495.0 1959.47   2
   4   8 -10-200.511 446.371   2
   4   8  -9 31857.5 2528.78   2
   4   8  -8 4217.04 918.463   2
   4   8  -8 4855.99 789.164   5
   4   8  -7 12397.6 1519.50   2
   4   8  -7 12969.2 1294.48   5
   4   8  -6 25903.3 2135.20   2
   4   8  -6 24907.8 1823.55   5
   4   8  -5 26219.1 2157.98   2
   4   8  -5 29196.3 1995.77   5
   4   8  -4 39360.0 2583.83   2
   4   8  -4 38774.3 2349.00   5
   4   8  -3 200.907 410.258   2
   4   8  -3-38.2964 234.749   5
   4   8  -2 77084.8 3646.28   2
   4   8  -2 76445.1 3397.37   5
   4   8  -1 22181.2 1919.13   2
   4   8  -1 22270.2 1778.13   5
   4   8   0 7330.76 1085.75   2
   4   8   0 6839.97 1000.37   5
   4   8   1 5934.17 968.405   2
   4   8   1 6687.01 991.188   5
   4   8   2 3301.73 787.309   2
   4   8   2 1934.00 515.795   5
   4   8   3 23398.2 1877.30   5
   4   8   3 28534.2 2136.43   2
   4   8   4 1001.56 447.743   5
   4   8   4 2325.09 666.309   2
   4   8   5 26133.3 1998.04   5
   4   8   5 27597.0 2097.24   2
   4   8   6 13718.9 1441.42   5
   4   8   6 13492.9 1481.83   2
   4   8   7 28640.6 2115.31   5
   4   8   7 29466.8 2181.77   2
   4   8   8 26755.9 2053.60   5
   4   8   8 31156.9 1583.95   4
   4   8   8 26376.4 2070.69   2
   4   8   9 5336.15 940.879   5
   4   8   9 5811.39 732.507   4
   4   8  10 25704.6 2036.24   5
   4   8  10 30479.4 1797.00   4
   4   8  11 1107.61 369.112   4
   4   8  11 81.0662 241.138   5
   4   8  12 32759.7 2327.00   5
   4   8  12 37192.9 2212.81   4
   4   8  13 7324.39 1022.30   4
   4   8  13 9748.86 1259.71   5
   4   8  13 6864.17 1109.85   1
   4   8  14 14645.3 1671.31   1
   4   8  14 15490.5 1603.55   5
   4   8  14 18057.1 1676.95   4
   4   8  15 22787.2 1941.01   5
   4   8  15 18505.2 1887.29   1
   4   8  15 25126.6 2065.46   4
   4   8  16 1193.27 532.229   4
   4   8  16 1977.38 691.831   1
   4   8  16 2161.32 631.576   5
   4   8  17 8548.21 1326.15   4
   4   8  17 8272.23 1302.22   1
   4   8  18 1122.57 566.454   4
   4   8  18 685.316 499.551   1
   4   8  19 9111.67 1431.78   4
   4   8  19 8880.58 1414.94   1
   4   8  20 8028.98 1412.87   4
   4   8  20 5450.62 1142.62   1
   4   9 -13 17396.0 2186.93   2
   4   9 -12-265.902 523.489   2
   4   9 -11 17918.4 2091.92   2
   4   9 -10 5151.90 1160.25   2
   4   9  -9 7644.79 1330.83   2
   4   9  -8 22373.7 2187.46   2
   4   9  -8 20188.7 1662.72   5
   4   9  -7 265.234 396.995   2
   4   9  -7 509.421 334.599   5
   4   9  -6 30183.1 2451.54   2
   4   9  -6 29397.6 2075.63   5
   4   9  -5 2364.29 619.159   5
   4   9  -5 2268.25 699.103   2
   4   9  -4 25690.0 2209.78   2
   4   9  -4 25487.8 1964.83   5
   4   9  -3 14897.9 1673.73   2
   4   9  -3 13197.0 1426.49   5
   4   9  -2 14019.9 1621.62   2
   4   9  -2 14640.2 1508.78   5
   4   9  -1 31968.3 2441.98   2
   4   9  -1 28574.4 2124.79   5
   4   9   0 952.118 438.229   2
   4   9   0 600.657 357.646   5
   4   9   1 10073.6 1379.30   2
   4   9   1 7268.76 1094.00   5
   4   9   2 8193.74 1145.60   5
   4   9   2 9771.87 1378.91   2
   4   9   3 37308.8 2496.91   5
   4   9   3 38648.1 2641.56   2
   4   9   4 21513.6 1880.03   5
   4   9   4 21145.2 1948.86   2
   4   9   5 31505.3 2311.20   5
   4   9   5 29266.1 2285.30   2
   4   9   6 41534.9 2702.96   5
   4   9   6 51653.7 3075.12   2
   4   9   7 483.615 383.551   2
   4   9   7 535.237 433.481   5
   4   9   8 29175.1 2255.56   5
   4   9   8 32009.1 2443.36   2
   4   9   9 3846.00 870.144   2
   4   9   9 2542.48 663.687   5
   4   9  10 12312.9 1478.41   5
   4   9  11 10764.6 1402.19   5
   4   9  12 4862.43 938.914   5
   4   9  13 12039.9 1554.05   1
   4   9  13 13739.2 1575.28   5
   4   9  14 341.207 395.483   5
   4   9  14 633.355 529.936   1
   4   9  15 17805.3 1806.77   5
   4   9  15 18595.7 1977.14   1
   4   9  16 5371.23 1015.46   5
   4   9  16 7771.80 1325.22   1
   4   9  17 4755.99 1074.75   1
   4   9  18 17710.2 2027.18   1
   4  10 -11 1150.76 651.875   2
   4  10 -10 17161.6 2126.59   2
   4  10  -9 1220.83 681.779   2
   4  10  -8 19254.3 2158.33   2
   4  10  -7 11721.3 1679.77   2
   4  10  -7 11297.0 1320.01   5
   4  10  -6 9462.58 1455.34   2
   4  10  -6 10206.7 1275.36   5
   4  10  -5 14528.8 1794.18   2
   4  10  -5 12065.5 1410.41   5
   4  10  -4 5522.95 1105.15   2
   4  10  -4 3903.15 824.932   5
   4  10  -3 9715.75 1437.50   2
   4  10  -3 8377.35 1182.90   5
   4  10  -2 989.972 655.921   2
   4  10  -2 391.116 402.642   5
   4  10  -1 49388.3 3238.34   2
   4  10  -1 43468.3 2772.36   5
   4  10   0 10573.3 1476.98   2
   4  10   0 12432.6 1486.84   5
   4  10   1 29389.9 2290.13   5
   4  10   1 36173.8 2720.66   2
   4  10   2 48953.2 3005.59   5
   4  10   2 56632.0 3408.41   2
   4  10   3-199.111 267.979   5
   4  10   3 879.627 580.676   2
   4  10   4 14861.1 1650.69   5
   4  10   4 17208.2 1867.40   2
   4  10   5 1603.78 583.063   5
   4  10   5 2839.49 770.984   2
   4  10   6 16406.1 1745.13   5
   4  10   6 16730.8 1829.02   2
   4  10   7 16766.0 1778.28   5
   4  10   7 16978.8 1844.48   2
   4  10   8 3299.50 789.733   2
   4  10   8 4758.26 954.028   5
   4  10   9 25189.3 2208.13   5
   4  10   9 29041.3 2447.33   2
   4  10  10 2263.87 671.344   5
   4  10  11 15869.5 1785.96   5
   4  10  12 941.007 521.403   5
   4  10  13 13044.5 1680.45   1
   4  10  13 15829.0 1799.75   5
   4  10  14 5479.03 1116.39   1
   4  10  14 6647.60 1174.27   5
   4  10  15 2947.53 886.671   1
   4  10  15 1974.62 588.771   5
   4  10  16 17853.0 2059.72   1
   4  11  -9 10630.8 1739.85   2
   4  11  -8 2288.24 793.301   2
   4  11  -7 14516.6 1944.93   2
   4  11  -6 3672.25 1029.25   2
   4  11  -6 3581.76 803.420   5
   4  11  -5 12470.2 1810.21   2
   4  11  -5 13997.3 1600.96   5
   4  11  -4-42.1401 524.864   2
   4  11  -4 1188.28 588.321   5
   4  11  -3 18049.1 2079.20   2
   4  11  -3 14777.1 1686.54   5
   4  11  -2 18489.9 2095.57   2
   4  11  -2 18502.0 1869.72   5
   4  11  -1 4682.23 1044.40   2
   4  11  -1 5430.11 1071.73   5
   4  11   0 31853.4 2491.77   5
   4  11   0 32489.0 2733.67   2
   4  11   1 439.275 362.809   5
   4  11   1 27.2054 464.822   2
   4  11   2 26310.3 2276.53   5
   4  11   2 31978.8 2686.12   2
   4  11   3 14229.2 1677.77   5
   4  11   3 16439.2 1918.81   2
   4  11   4 4347.53 956.257   5
   4  11   4 4401.11 1053.48   2
   4  11   5 9445.27 1373.45   5
   4  11   5 9890.62 1459.12   2
   4  11   6 2376.34 756.201   5
   4  11   6 2761.49 848.794   2
   4  11   7 19914.2 2038.91   5
   4  11   7 20920.5 2153.85   2
   4  11   8 240.362 470.457   2
   4  11   8 602.282 463.120   5
   4  11   9 21029.7 2128.47   5
   4  11   9 21133.0 2212.41   2
   4  11  10 7250.34 1285.89   5
   4  11  11 9511.17 1453.49   5
   4  11  12 15245.8 1871.95   1
   4  11  12 13055.6 1705.45   5
   4  11  13 815.876 555.204   5
   4  11  13 110.801 379.316   1
   4  11  14 8959.88 1508.49   1
   4  11  14 10184.8 1511.67   5
   4  12  -7 13578.5 1999.59   2
   4  12  -6 8951.69 1618.15   2
   4  12  -6 8233.66 1259.21   5
   4  12  -5 8246.81 1562.16   2
   4  12  -5 8082.89 1263.21   5
   4  12  -4 23641.6 2523.12   2
   4  12  -4 19265.5 1962.20   5
   4  12  -3 26.8749 499.799   2
   4  12  -3-95.5410 323.331   5
   4  12  -2 11700.1 1553.42   5
   4  12  -2 11317.5 1758.42   2
   4  12  -1 2314.52 805.088   2
   4  12  -1 3548.59 838.030   5
   4  12   0 5887.18 1148.88   5
   4  12   0 5571.41 1212.84   2
   4  12   1 4717.38 1007.67   5
   4  12   1 5225.08 1233.48   2
   4  12   2 6496.06 1230.24   5
   4  12   2 9533.02 1579.56   2
   4  12   3 15643.0 1851.26   5
   4  12   3 14058.1 1875.83   2
   4  12   4 45.7451 392.300   5
   4  12   4 117.267 506.359   2
   4  12   5 9421.36 1477.45   5
   4  12   5 10538.8 1619.87   2
   4  12   6 9299.54 1434.69   5
   4  12   6 12837.5 1805.24   2
   4  12   7 12657.8 1802.57   2
   4  12   7 9647.20 1487.90   5
   4  12   8 14914.7 1852.71   5
   4  12   8 17544.7 2103.62   2
   4  12   9 2228.10 886.140   2
   4  12   9 2773.98 829.671   5
   4  12  10 20541.6 2209.33   5
   4  12  11 134.853 392.124   5
   4  12  11 1265.95 730.083   1
   4  12  12 16533.0 1996.12   5
   4  12  12 11561.2 1748.83   1
   4  13  -5-62.0197 385.563   5
   4  13  -4 7215.65 1270.51   5
   4  13  -3 1698.89 761.133   2
   4  13  -3-293.750 366.154   5
   4  13  -2 5106.93 1282.16   2
   4  13  -2 2549.50 764.171   5
   4  13  -1 3471.56 903.904   5
   4  13  -1 4244.84 1147.35   2
   4  13   0-919.203 555.395   5
   4  13   0 258.637 631.842   2
   4  13   1 8515.39 1428.66   5
   4  13   1 9922.58 1700.42   2
   4  13   2 1706.46 694.191   5
   4  13   2 3900.40 1095.98   2
   4  13   3 12773.5 1745.63   5
   4  13   3 13253.8 1946.58   2
   4  13   4 7712.72 1398.56   5
   4  13   4 7933.11 1513.82   2
   4  13   5 6666.64 1298.29   5
   4  13   5 9784.72 1662.62   2
   4  13   6 12164.7 1854.15   2
   4  13   6 13109.1 1783.86   5
   4  13   7-134.311 799.836   2
   4  13   7 593.435 566.342   5
   4  13   8 18410.2 2165.78   5
   4  13   8 18645.2 2242.15   2
   5 -12  -2 5798.68 1358.71   6
   5 -12  -1 1898.43 841.439   6
   5 -12   0 8559.94 1591.00   6
   5 -12   1-680.824 858.735   6
   5 -12   2 11064.3 1799.50   6
   5 -12   3 2680.22 938.040   6
   5 -12   4 6458.78 1360.34   6
   5 -12   5 7856.66 1522.41   6
   5 -11  -6 7698.16 1553.70   6
   5 -11  -5 2786.73 964.797   6
   5 -11  -4 18976.5 2305.35   6
   5 -11  -3-383.854 683.261   6
   5 -11  -2 20376.1 2411.81   6
   5 -11  -1 7261.47 1452.09   6
   5 -11   0 11021.9 1719.16   6
   5 -11   1 4236.97 1106.20   6
   5 -11   2 5653.99 1220.19   6
   5 -11   3 14519.9 1950.03   6
   5 -11   4 1168.54 677.119   6
   5 -11   5 21287.5 2407.05   6
   5 -11   6 3278.00 939.048   6
   5 -11   7 10691.8 1769.59   6
   5 -11   8 5116.57 1249.65   6
   5 -11   9 3778.54 1085.26   4
   5 -11   9 3061.86 937.925   6
   5 -11  10 13415.6 1985.21   4
   5 -10  -9 7426.62 1482.64   6
   5 -10  -8 21493.3 2467.25   6
   5 -10  -7 2652.60 919.071   6
   5 -10  -6 18971.8 2258.77   6
   5 -10  -5 4413.91 1079.28   6
   5 -10  -4 18938.2 2195.31   6
   5 -10  -3 5812.82 1259.89   6
   5 -10  -2 12269.6 1761.92   6
   5 -10  -1 11770.4 1733.71   6
   5 -10   0 246.829 462.629   6
   5 -10   1 28336.7 2619.63   6
   5 -10   2-453.180 605.438   6
   5 -10   3 14144.1 1838.86   6
   5 -10   4 3767.36 1003.42   6
   5 -10   5 6298.29 1311.60   6
   5 -10   6 13714.6 1866.86   6
   5 -10   7-145.910 451.952   6
   5 -10   8 30205.7 2860.71   6
   5 -10   9 1281.67 684.185   4
   5 -10   9 234.447 529.092   6
   5 -10  10 12439.3 1848.96   4
   5 -10  11 2591.30 902.397   4
   5 -10  12 1429.67 719.967   4
   5  -9 -11 2064.66 833.013   6
   5  -9 -10 10724.1 1756.21   6
   5  -9  -9 1565.77 728.517   6
   5  -9  -8 29254.0 2786.60   6
   5  -9  -7 660.323 512.442   6
   5  -9  -6 10572.6 1633.01   6
   5  -9  -5 11227.6 1637.11   6
   5  -9  -4 708.623 561.403   6
   5  -9  -3 20373.1 2165.67   6
   5  -9  -2 1404.56 665.866   6
   5  -9  -1 32139.3 2731.15   6
   5  -9   0 7433.08 1305.19   6
   5  -9   1 15603.4 1872.65   6
   5  -9   2 12435.9 1697.60   6
   5  -9   3 2859.43 839.748   6
   5  -9   4 13286.0 1722.73   6
   5  -9   5-153.892 446.896   6
   5  -9   6 22923.4 2321.83   6
   5  -9   7 4400.28 1089.84   6
   5  -9   8 7343.93 1371.97   6
   5  -9   9 13470.2 1828.80   4
   5  -9   9 14241.0 1931.93   6
   5  -9  10 1943.34 843.713   4
   5  -9  11 17316.4 2143.07   4
   5  -9  12-285.656 598.408   4
   5  -9  13 14050.5 2023.12   4
   5  -9  14 4224.55 1170.62   4
   5  -8 -12 16063.6 2118.43   6
   5  -8 -11 662.631 431.571   6
   5  -8 -10 13110.5 1856.30   6
   5  -8  -9 11517.5 1740.50   6
   5  -8  -8 6528.98 1260.86   6
   5  -8  -7 19618.1 2165.95   6
   5  -8  -6 3330.18 946.451   6
   5  -8  -5 32677.6 2699.51   6
   5  -8  -4 1964.23 684.411   6
   5  -8  -3 22497.0 2165.45   6
   5  -8  -2 15099.6 1785.47   6
   5  -8  -1 4478.10 997.023   6
   5  -8   0 18161.5 1946.78   6
   5  -8   1-311.635 397.945   6
   5  -8   2 43374.6 2988.04   6
   5  -8   3 4705.75 1010.23   6
   5  -8   4 24387.4 2233.12   6
   5  -8   5 16594.7 1857.93   6
   5  -8   6 1309.24 525.048   6
   5  -8   7 21629.9 2180.80   6
   5  -8   8-719.575 569.139   6
   5  -8   9 19718.5 2170.23   6
   5  -8  10 2595.82 816.868   6
   5  -8  10 2087.34 741.750   4
   5  -8  11 13140.0 1827.39   4
   5  -8  12 13992.2 1936.87   4
   5  -8  13 4274.57 1152.43   4
   5  -8  14 28495.5 2848.28   4
   5  -8  15 2326.33 859.747   4
   5  -7 -14 18992.8 2372.00   6
   5  -7 -13 4648.89 1206.13   6
   5  -7 -12 12348.0 1814.35   6
   5  -7 -11 12393.0 1785.84   6
   5  -7 -10 3060.88 883.018   6
   5  -7  -9 23973.5 2350.79   6
   5  -7  -8 177.637 409.648   6
   5  -7  -7 19694.2 2054.02   6
   5  -7  -6 4635.00 949.561   6
   5  -7  -5 12650.1 1582.29   6
   5  -7  -4 11641.9 1502.49   6
   5  -7  -3 14041.7 1612.24   6
   5  -7  -2 39166.3 2707.32   6
   5  -7  -1 3716.36 929.112   6
   5  -7   0 42277.7 2851.34   6
   5  -7   1 18958.3 1854.34   6
   5  -7   2 12437.2 1518.21   6
   5  -7   3 43123.0 2850.09   6
   5  -7   4-29.5332 335.871   6
   5  -7   5 28279.5 2325.05   6
   5  -7   6 3228.88 805.315   6
   5  -7   7 20602.3 2023.42   6
   5  -7   8 18893.0 1971.45   6
   5  -7   9 2911.24 819.740   6
   5  -7  10 35070.9 2832.84   6
   5  -7  10 40592.4 2998.90   4
   5  -7  11 251.430 462.251   4
   5  -7  12 17459.7 2070.26   4
   5  -7  13 2141.75 861.649   4
   5  -7  14 15290.5 2018.03   4
   5  -7  15 12904.0 1917.38   4
   5  -7  16 1471.43 656.502   4
   5  -7  17 13026.2 1985.13   4
   5  -6 -15 9791.10 1688.49   6
   5  -6 -14 4880.00 1255.03   6
   5  -6 -13 23261.8 2481.64   6
   5  -6 -12 330.160 523.418   6
   5  -6 -11 16782.1 2022.98   6
   5  -6 -10 5409.46 1148.04   6
   5  -6  -9 17590.1 1944.66   6
   5  -6  -8 17065.6 1870.45   6
   5  -6  -7 10065.9 1441.68   6
   5  -6  -6 20465.1 1962.28   6
   5  -6  -5 3956.15 846.844   6
   5  -6  -4 35539.6 2531.05   6
   5  -6  -3 4033.42 864.228   6
   5  -6  -2 44380.9 2761.44   6
   5  -6  -1 62564.7 3289.82   6
   5  -6   0 2241.49 702.890   6
   5  -6   1 58217.2 3168.07   6
   5  -6   2 1129.10 534.675   6
   5  -6   3 11853.2 1398.58   6
   5  -6   4 25455.5 2081.48   6
   5  -6   5 19953.8 1847.70   6
   5  -6   6 45019.4 2844.43   6
   5  -6   7 5958.55 1050.40   6
   5  -6   8 49795.4 3118.90   6
   5  -6   9 3087.12 803.105   6
   5  -6  10 20032.6 2029.97   6
   5  -6  10 21065.3 2070.07   4
   5  -6  11 6400.85 1166.81   4
   5  -6  12 1234.33 525.101   4
   5  -6  13 16725.9 2017.73   4
   5  -6  14 999.469 585.920   4
   5  -6  15 26299.9 2633.50   4
   5  -6  16-151.000 463.509   4
   5  -6  17 14460.6 2082.03   4
   5  -6  18 7882.69 1601.54   4
   5  -5 -15 19677.1 2357.06   6
   5  -5 -14-171.335 524.541   6
   5  -5 -13 9383.80 1544.92   6
   5  -5 -12 14747.4 1880.38   6
   5  -5 -11 12101.0 1667.49   6
   5  -5 -10 25926.2 2337.41   6
   5  -5  -9 17968.0 1913.09   6
   5  -5  -8 31456.1 2458.59   6
   5  -5  -7 2187.09 661.002   6
   5  -5  -6 27426.4 2177.35   6
   5  -5  -5 66837.8 3414.95   6
   5  -5  -4 7854.65 1127.56   6
   5  -5  -3 88950.0 3865.92   6
   5  -5  -2 3870.42 798.444   6
   5  -5  -1 28823.1 2088.47   6
   5  -5   0 1003.45 519.455   6
   5  -5   1 40583.6 2481.97   6
   5  -5   2 8873.42 1160.41   6
   5  -5   3 125.798 281.440   6
   5  -5   4 47605.4 2728.19   6
   5  -5   5 3049.29 722.862   6
   5  -5   6 65944.8 3311.33   6
   5  -5   7 5276.29 941.802   6
   5  -5   8 19886.5 1872.36   6
   5  -5   9 43112.8 2830.81   6
   5  -5  10 1814.13 629.381   4
   5  -5  11 31486.5 2538.10   4
   5  -5  12 3269.06 927.023   4
   5  -5  13 16337.9 1924.48   4
   5  -5  14 9658.90 1497.56   4
   5  -5  15 8137.25 1451.63   4
   5  -5  16 13154.3 1875.71   4
   5  -5  17 7009.82 1401.23   4
   5  -5  18 20142.6 2428.40   4
   5  -5  19-153.960 554.608   4
   5  -4 -16 3815.82 1076.50   6
   5  -4 -15 10385.0 1677.65   6
   5  -4 -14 12444.8 1750.37   6
   5  -4 -13 3206.63 889.659   6
   5  -4 -12 31465.1 2626.46   6
   5  -4 -11 1659.24 632.525   6
   5  -4 -10 53943.0 3297.30   6
   5  -4  -9 46210.7 2951.51   6
   5  -4  -8 49807.1 3015.24   6
   5  -4  -7 115557. 4632.46   6
   5  -4  -6 7144.78 1069.12   6
   5  -4  -5 40513.9 2536.31   6
   5  -4  -4-293.999 381.536   6
   5  -4  -3 7945.64 1063.18   6
   5  -4  -2 422.335 284.856   6
   5  -4  -1 7155.47 991.517   6
   5  -4   0 18141.1 787.733   2
   5  -4   0 18957.3 1573.91   6
   5  -4   1 5645.36 924.078   6
   5  -4   2 74315.0 3289.67   6
   5  -4   3 6085.06 891.948   6
   5  -4   4 11487.1 1266.30   6
   5  -4   5 69380.8 3213.93   6
   5  -4   6 13539.6 1395.80   6
   5  -4   7 62338.8 3133.53   6
   5  -4   8 214.724 307.311   6
   5  -4   9 70338.3 3533.81   6
   5  -4  10 6402.24 1094.52   4
   5  -4  11 19129.6 1928.21   4
   5  -4  12 18750.4 1955.60   4
   5  -4  13 266.438 392.069   4
   5  -4  14 28448.0 2540.89   4
   5  -4  15-6.36530 340.350   4
   5  -4  16 28057.2 2647.26   4
   5  -4  17-275.116 546.606   4
   5  -4  18 22539.9 2492.54   4
   5  -4  19 12187.6 1900.22   4
   5  -3 -17 2965.04 970.213   6
   5  -3 -16 14711.7 1951.22   6
   5  -3 -15 284.634 402.583   6
   5  -3 -14 37287.3 2965.86   6
   5  -3 -13 13919.2 1753.43   6
   5  -3 -12 24162.7 2227.59   6
   5  -3 -11 92264.0 4358.10   6
   5  -3 -10 27768.5 2269.84   6
   5  -3  -9 76635.6 3744.42   6
   5  -3  -8 14742.7 1551.30   6
   5  -3  -7 27585.8 2065.97   6
   5  -3  -6 958.860 331.719   6
   5  -3  -5 2041.77 560.038   6
   5  -3  -4 20760.7 1645.78   6
   5  -3  -3 216.397 254.633   6
   5  -3  -2 58627.0 2720.86   6
   5  -3  -2 53052.0 1641.35   2
   5  -3  -1 7241.77 943.987   6
   5  -3  -1 5666.62 410.228   2
   5  -3   0 57871.1 1283.92   2
   5  -3   0 61772.0 2754.31   6
   5  -3   1 11121.1 1152.10   6
   5  -3   2 42229.7 2279.85   6
   5  -3   3 37108.9 2142.14   6
   5  -3   4 1195.94 412.206   6
   5  -3   5 77316.5 3244.57   6
   5  -3   6 6959.81 955.723   6
   5  -3   7 73337.6 3283.28   6
   5  -3   8 9783.52 1191.85   6
   5  -3   9 17039.0 1620.11   4
   5  -3   9 19731.6 1736.46   6
   5  -3  10 39614.3 2596.36   4
   5  -3  11 3058.47 772.531   4
   5  -3  12 52385.3 3210.47   4
   5  -3  13 2066.68 623.120   4
   5  -3  14 17274.1 1924.46   4
   5  -3  15 22664.0 2282.68   4
   5  -3  16 8367.78 1446.98   4
   5  -3  17 23911.1 2504.98   4
   5  -3  18 33.9317 445.278   4
   5  -3  19 27345.0 2785.03   4
   5  -3  20 3920.60 1119.77   4
   5  -2 -17 1671.81 683.898   6
   5  -2 -16 17806.1 2143.65   6
   5  -2 -15 18287.9 2097.88   6
   5  -2 -14 14901.8 1829.50   6
   5  -2 -13 47465.3 3163.58   6
   5  -2 -12 1670.99 628.593   6
   5  -2 -11 29383.6 2304.27   6
   5  -2 -10 464.844 410.661   6
   5  -2  -9 15848.5 1572.97   6
   5  -2  -8 6888.38 1015.57   6
   5  -2  -7 20616.1 1702.44   6
   5  -2  -6 49756.2 2618.16   6
   5  -2  -5 946.285 407.632   6
   5  -2  -4 114268. 3978.11   6
   5  -2  -3 21528.7 1571.08   6
   5  -2  -2 18587.9 1427.35   6
   5  -2  -2 17341.4 781.974   2
   5  -2  -1 34193.3 1906.94   6
   5  -2  -1 30499.8 919.898   2
   5  -2   0 3370.59 613.143   6
   5  -2   1 49518.2 2322.95   6
   5  -2   2 801.767 347.453   6
   5  -2   3 122584. 3931.42   6
   5  -2   4 9357.44 1014.92   6
   5  -2   5 43989.2 2255.68   6
   5  -2   6 23979.9 1668.38   6
   5  -2   6 19386.7 652.768   1
   5  -2   7 12975.4 1286.18   6
   5  -2   8 45551.9 2521.87   6
   5  -2   9 65.4068 273.227   4
   5  -2  10 48984.8 2821.68   4
   5  -2  11 16070.5 1654.30   4
   5  -2  12 26920.8 2203.78   4
   5  -2  13 75299.9 3892.41   4
   5  -2  14 1595.99 658.740   4
   5  -2  15 56627.9 3534.43   4
   5  -2  16 1690.39 621.739   4
   5  -2  17 17419.9 2080.86   4
   5  -2  18 15366.4 2006.46   4
   5  -2  19 2758.97 950.886   4
   5  -2  20 10804.2 1804.62   4
   5  -1 -10 30676.4 2223.32   6
   5  -1  -9 4501.78 826.624   6
   5  -1  -8 61267.4 3007.41   6
   5  -1  -7 1679.49 537.434   6
   5  -1  -6 47167.2 2451.31   6
   5  -1  -5 15635.5 1325.40   6
   5  -1  -4 34756.5 1960.04   6
   5  -1  -3 97844.5 3373.14   6
   5  -1  -2 1249.50 405.370   6
   5  -1  -1 99621.4 3278.82   6
   5  -1   0 4060.80 629.917   6
   5  -1   1 108676. 3405.80   6
   5  -1   2 10290.8 969.551   6
   5  -1   3 30055.5 1683.86   6
   5  -1   4 51005.1 2274.23   6
   5  -1   5 744.621 305.407   6
   5  -1   6 33317.2 1894.31   6
   5  -1   7 21040.3 1564.85   6
   5  -1   8 19408.7 1559.42   4
   5  -1   9 48567.2 1153.18   1
   5  -1   9 56434.4 2807.14   4
   5  -1  10 4909.57 856.201   4
   5  -1  11 95682.2 4076.61   4
   5  -1  12 674.178 428.606   4
   5  -1  13 82887.5 3989.14   4
   5  -1  14 25236.9 2196.87   4
   5  -1  15 21928.1 2116.81   4
   5  -1  16 19110.0 2028.24   4
   5  -1  17 1285.46 585.603   4
   5  -1  18 20479.6 2241.07   4
   5  -1  19 856.488 437.607   4
   5  -1  20 12039.2 1863.67   4
   5  -1  21 3386.51 1072.07   4
   5   0  -8 16157.9 1438.41   6
   5   0  -7 38275.7 2165.92   6
   5   0  -6 12804.0 1191.89   6
   5   0  -5 74861.2 2912.54   6
   5   0  -4 13971.3 1148.15   6
   5   0  -3 199729. 5034.69   6
   5   0  -2 26032.3 1482.88   6
   5   0  -1 114138. 2450.84   2
   5   0  -1 115604. 3382.40   6
   5   0   0 34553.2 1646.54   6
   5   0   0 32779.7 967.318   2
   5   0   1 1949.66 395.636   6
   5   0   1 1880.37 175.718   2
   5   0   2 28989.4 1528.25   6
   5   0   3 38121.5 1776.76   6
   5   0   4 42885.4 1945.09   6
   5   0   5 87759.8 2982.42   6
   5   0   6 44084.0 2097.00   6
   5   0   7 74941.0 2983.40   4
   5   0   7 74888.2 2930.50   6
   5   0   8 10.6554 215.787   4
   5   0   9 60573.6 2865.16   4
   5   0  10 6853.12 526.630   1
   5   0  10 9324.42 1153.10   4
   5   0  11 40836.1 1380.57   1
   5   0  11 37664.9 2411.55   4
   5   0  12 34000.8 1273.58   1
   5   0  12 36906.2 2441.71   4
   5   0  13 9661.94 1290.55   4
   5   0  14 65400.1 3543.48   4
   5   0  15 9675.00 1428.36   4
   5   0  16 17886.7 1926.32   4
   5   0  17 3725.06 936.437   4
   5   0  18 9710.12 1517.19   4
   5   0  19 18552.8 2182.61   4
   5   0  20 6452.57 1315.59   4
   5   0  21 19255.8 2347.15   4
   5   1  -6 20837.5 1450.15   6
   5   1  -5 91413.7 3117.06   6
   5   1  -4 61863.8 2397.14   6
   5   1  -3 20038.0 1063.69   2
   5   1  -3 20859.7 1274.96   6
   5   1  -2 108657. 2720.61   2
   5   1  -2 106073. 3100.22   6
   5   1  -1 6841.13 543.427   2
   5   1  -1 6090.87 638.027   6
   5   1   0 42128.6 1389.53   2
   5   1   0 42576.4 1703.31   6
   5   1   1 73166.7 2355.66   6
   5   1   1 77590.7 1984.25   2
   5   1   2 18480.7 1090.25   6
   5   1   2 18048.8 809.687   2
   5   1   3 90318.3 2702.49   6
   5   1   3 88260.8 2130.50   2
   5   1   4 5448.71 615.912   6
   5   1   5 98288.9 3027.54   6
   5   1   6 1200.75 382.423   4
   5   1   7 62894.8 2601.11   4
   5   1   8 43894.8 2236.45   4
   5   1   9 6516.48 861.127   4
   5   1  10 61728.8 2926.37   4
   5   1  11 3167.23 674.146   4
   5   1  11 3640.33 469.845   1
   5   1  12 29643.3 1390.89   1
   5   1  12 29136.6 2105.48   4
   5   1  13 4487.56 853.243   4
   5   1  13 4271.50 529.593   1
   5   1  14 34847.9 1604.94   1
   5   1  14 38349.8 2621.70   4
   5   1  15 12047.8 1504.61   4
   5   1  16 37235.1 2762.42   4
   5   1  17 22131.0 2197.08   4
   5   1  18 489.033 517.952   4
   5   1  19 16110.7 2003.75   4
   5   1  20-1408.23 681.721   4
   5   1  21 5551.73 1220.99   4
   5   2  -5 3074.71 497.885   2
   5   2  -5 3599.74 560.484   6
   5   2  -4 45779.3 1891.46   2
   5   2  -4 44904.9 1888.54   6
   5   2  -3 23420.1 1255.96   2
   5   2  -3 22033.4 1229.80   6
   5   2  -2 32723.8 1467.75   2
   5   2  -2 34814.1 1486.33   6
   5   2  -1 43626.3 1621.68   6
   5   2  -1 43049.3 1661.22   2
   5   2   0 95918.4 2529.75   6
   5   2   0 93895.5 2614.50   2
   5   2   1 40776.1 1491.53   6
   5   2   1 38243.2 1521.98   2
   5   2   2 136.568 128.337   6
   5   2   2-93.9740 138.440   2
   5   2   3 60118.8 1931.46   6
   5   2   3 58682.7 1921.35   2
   5   2   4 38779.6 1561.79   6
   5   2   4 33815.3 1418.63   2
   5   2   5 59989.1 2203.93   4
   5   2   6 115754. 3433.39   4
   5   2   7 28512.8 1651.52   4
   5   2   8 65601.8 2691.37   4
   5   2   9 6291.88 843.770   4
   5   2  10 37371.2 2153.86   4
   5   2  11 8610.22 1077.57   4
   5   2  12 34973.6 1696.00   1
   5   2  12 34119.2 2242.57   4
   5   2  13 37382.6 1806.57   1
   5   2  13 44064.6 2645.14   4
   5   2  14 21714.0 1364.05   1
   5   2  14 23136.5 1984.63   4
   5   2  15 23110.4 1453.17   1
   5   2  15 29585.8 2339.58   4
   5   2  16 8313.04 1277.12   4
   5   2  17 10993.1 1498.84   4
   5   2  18 5746.37 1148.03   4
   5   2  19 3864.89 1015.61   4
   5   2  20 22491.5 2421.40   4
   5   2  21 955.574 576.194   4
   5   3  -7 13207.5 1180.63   2
   5   3  -6 9366.50 966.147   2
   5   3  -5 28550.5 1633.18   2
   5   3  -4 32130.4 1488.05   6
   5   3  -4 33022.1 1711.30   2
   5   3  -3 78423.3 2336.31   6
   5   3  -3 77402.8 2678.35   2
   5   3  -2 7086.14 739.466   2
   5   3  -2 7302.43 592.570   6
   5   3  -1 44752.5 1471.99   6
   5   3  -1 45751.3 1896.68   2
   5   3   0 529.035 165.162   4
   5   3   0 419.986 222.586   2
   5   3   0 566.777 158.307   6
   5   3   1 75130.4 1868.81   6
   5   3   1 68876.0 2432.33   2
   5   3   2 39363.0 1268.55   6
   5   3   2 40675.9 1760.74   2
   5   3   3 53528.2 2056.65   2
   5   3   4 102570. 3071.93   2
   5   3   4 112743. 2902.56   4
   5   3   5 3751.90 530.532   2
   5   3   5 4915.33 568.888   4
   5   3   6 75565.2 2554.37   4
   5   3   7 9042.02 860.968   4
   5   3   8 53606.5 2311.77   4
   5   3   9 50432.1 2353.17   4
   5   3  10 28755.8 1830.16   4
   5   3  11 39830.8 2291.04   4
   5   3  12 5801.60 896.974   4
   5   3  13 22918.6 1517.17   1
   5   3  13 25801.2 1986.29   4
   5   3  14 1166.46 489.608   4
   5   3  14 1010.87 359.379   1
   5   3  14 1139.09 359.086   5
   5   3  15 10587.2 1062.01   1
   5   3  15 11882.2 1430.01   4
   5   3  16 19998.9 1497.69   1
   5   3  16 24530.8 2158.63   4
   5   3  17 6640.96 1170.71   4
   5   3  17 6546.98 878.002   1
   5   3  18 26920.2 2439.56   4
   5   3  19 681.892 471.077   4
   5   3  20 27266.0 2626.66   4
   5   3  21 2443.44 867.627   4
   5   4 -12 27190.2 2165.84   2
   5   4 -11 195.579 281.338   2
   5   4 -10 25393.0 1949.50   2
   5   4  -9 13017.5 1337.61   2
   5   4  -8 18750.5 1546.41   2
   5   4  -7 76760.5 3167.80   2
   5   4  -6 4764.63 732.743   2
   5   4  -5 32607.6 1875.14   2
   5   4  -4 4.57667 206.334   2
   5   4  -3 40850.9 2011.77   2
   5   4  -3 38669.3 1428.38   6
   5   4  -2 9378.40 586.536   6
   5   4  -2 8708.10 903.001   2
   5   4  -2 8665.26 587.307   4
   5   4  -1 56845.9 1442.15   6
   5   4  -1 57978.0 2385.26   2
   5   4  -1 56799.2 1539.31   4
   5   4   0 68769.2 1466.06   6
   5   4   0 74481.8 2701.51   2
   5   4   0 69511.2 1631.86   4
   5   4   1 30623.1 1656.07   2
   5   4   1 27193.9 864.687   4
   5   4   2 60159.1 2423.31   2
   5   4   2 61841.7 1566.08   4
   5   4   3 1884.37 260.343   4
   5   4   3 1839.95 421.443   2
   5   4   4 65955.6 2546.71   2
   5   4   4 66658.8 1922.82   4
   5   4   5 12230.2 1056.62   2
   5   4   5 12657.3 827.227   4
   5   4   6 40967.4 1687.10   4
   5   4   6 38404.3 1928.06   2
   5   4   7 54978.1 2135.07   4
   5   4   8 7211.38 783.519   4
   5   4   9 81383.3 2990.85   4
   5   4  10 6804.87 864.035   4
   5   4  11 53539.1 2601.31   4
   5   4  12 24477.5 1809.96   4
   5   4  13 17475.8 1401.32   1
   5   4  13 16053.8 1344.35   5
   5   4  13 14752.7 1451.67   4
   5   4  14 21215.0 1594.40   1
   5   4  14 24202.7 1654.81   5
   5   4  14 24790.2 1992.87   4
   5   4  15 4165.33 855.131   4
   5   4  15 3105.21 645.185   1
   5   4  15 3802.30 652.637   5
   5   4  16 43533.4 2856.81   4
   5   4  16 36100.9 2177.30   1
   5   4  17 7148.03 1233.11   4
   5   4  17 5533.85 870.150   1
   5   4  18 12394.4 1316.40   1
   5   4  18 13036.3 1690.06   4
   5   4  19 11653.5 1636.16   4
   5   4  20 4175.85 1001.55   4
   5   4  21 14425.6 1957.60   4
   5   5 -16 20906.1 2247.08   2
   5   5 -15 516.031 522.880   2
   5   5 -14 28711.0 2452.60   2
   5   5 -13 1570.02 630.434   2
   5   5 -12 16381.1 1747.87   2
   5   5 -11 7776.42 1162.75   2
   5   5 -10 9739.09 1266.71   2
   5   5  -9 18730.9 1684.02   2
   5   5  -8 1551.43 525.293   2
   5   5  -7 40700.4 2376.96   2
   5   5  -6 13745.2 1327.69   2
   5   5  -5 40340.6 2245.22   2
   5   5  -4 31553.8 1928.53   2
   5   5  -3 21638.7 1569.77   2
   5   5  -3 21846.8 922.711   6
   5   5  -2 30497.0 961.769   6
   5   5  -2 30796.9 925.144   6
   5   5  -2 33078.4 1923.42   2
   5   5  -2 31154.2 965.722   4
   5   5  -1 4785.36 760.086   2
   5   5   0 56251.3 2526.58   2
   5   5   1 52033.0 2427.44   2
   5   5   2 50907.9 2394.38   2
   5   5   3 47522.1 2284.68   2
   5   5   3 41038.5 979.975   4
   5   5   4 19644.6 1468.09   2
   5   5   4 19346.5 791.555   4
   5   5   5 47470.0 2313.16   2
   5   5   5 49617.5 1587.44   4
   5   5   6 1160.59 418.417   2
   5   5   6 245.728 108.199   4
   5   5   7 68026.4 2289.76   4
   5   5   7 63783.5 2763.88   2
   5   5   8 12623.5 1001.10   4
   5   5   9 61010.1 2469.63   4
   5   5  10 47933.5 2288.13   4
   5   5  11 12942.2 1235.68   4
   5   5  12 79275.4 3313.58   5
   5   5  12 86102.5 3480.03   4
   5   5  13 1262.51 464.631   4
   5   5  13 917.820 365.073   5
   5   5  14 19938.4 1658.71   1
   5   5  14 20867.8 1632.31   5
   5   5  14 23777.1 1921.24   4
   5   5  15 4065.56 851.343   4
   5   5  15 3056.54 677.819   1
   5   5  15 3599.20 676.730   5
   5   5  16 10040.2 1202.86   1
   5   5  16 9799.46 1368.98   4
   5   5  17 22757.1 2115.82   4
   5   5  17 18424.9 1677.94   1
   5   5  18-220.332 381.755   4
   5   5  18 94.5158 279.467   1
   5   5  19 23535.3 1958.62   1
   5   5  19 27315.0 2521.80   4
   5   5  20 320.898 576.968   4
   5   5  21 10465.8 1659.35   4
   5   6 -15 1802.95 722.092   2
   5   6 -14 14273.0 1821.38   2
   5   6 -13 3633.55 912.832   2
   5   6 -12 2041.38 679.058   2
   5   6 -11 6789.34 1132.37   2
   5   6 -10 147.464 380.226   2
   5   6  -9 6826.80 1100.06   2
   5   6  -8 12815.0 1439.99   2
   5   6  -7 35501.9 2340.77   2
   5   6  -6 56068.7 2924.38   2
   5   6  -5 13379.1 1378.03   2
   5   6  -4 90838.7 3674.47   2
   5   6  -3 28017.6 1913.38   2
   5   6  -3 24648.4 855.495   6
   5   6  -2 19702.4 1590.76   2
   5   6  -1 20701.8 1627.14   2
   5   6   0 13183.8 1298.40   2
   5   6   1 40180.4 2279.36   2
   5   6   2 1703.90 509.180   2
   5   6   3 131684. 4400.75   2
   5   6   4 3357.27 210.402   4
   5   6   4 3751.45 713.529   2
   5   6   5 58019.0 1575.11   4
   5   6   5 58685.9 2786.77   2
   5   6   6 16245.3 884.314   4
   5   6   6 13751.9 1320.18   2
   5   6   7 15489.2 970.275   4
   5   6   7 13066.2 1296.04   2
   5   6   8 35847.3 1665.85   4
   5   6   8 31951.4 2075.97   2
   5   6   9 1039.74 325.070   4
   5   6   9 1457.07 499.362   5
   5   6  10 65626.0 3117.75   5
   5   6  10 74084.0 2848.17   4
   5   6  11 8089.90 1086.59   5
   5   6  11 12475.5 1178.22   4
   5   6  12 55526.3 2885.62   5
   5   6  12 57486.4 2759.69   4
   5   6  13 21564.9 1761.61   5
   5   6  13 23965.6 1828.62   4
   5   6  14 93.0148 301.772   4
   5   6  14 259.613 279.444   5
   5   6  15 9773.45 1246.34   1
   5   6  15 10642.2 1212.69   5
   5   6  16-54.1396 279.819   4
   5   6  16 477.574 367.992   1
   5   6  16 251.594 225.185   5
   5   6  17 8321.16 1182.93   1
   5   6  17 11018.1 1468.53   4
   5   6  18 8357.85 1369.85   4
   5   6  18 5353.02 974.384   1
   5   6  19 12049.5 1494.87   1
   5   6  19 14470.5 1807.43   4
   5   6  20 5418.95 1172.67   4
   5   6  21 337.187 551.250   4
   5   7 -14 638.406 520.601   2
   5   7 -13 12898.9 1742.79   2
   5   7 -12 1060.35 547.256   2
   5   7 -11 13867.4 1685.53   2
   5   7 -10 11535.0 1505.93   2
   5   7  -9 2882.12 748.339   2
   5   7  -8 26701.3 2189.03   2
   5   7  -8 27495.9 1870.84   5
   5   7  -7 2701.12 746.116   2
   5   7  -6 40541.8 2603.08   2
   5   7  -5 22725.8 1903.49   2
   5   7  -4 50836.2 2844.92   2
   5   7  -3 45273.6 2647.37   2
   5   7  -2 60.2386 291.508   2
   5   7  -1 39823.7 2453.88   2
   5   7   0 166.712 298.468   2
   5   7   1 30716.3 2126.77   2
   5   7   2 32203.4 2168.49   2
   5   7   3 54048.6 2840.89   2
   5   7   4 33914.4 2230.08   2
   5   7   5 2686.15 666.302   2
   5   7   6 56219.1 2919.54   5
   5   7   6 56649.3 1683.10   4
   5   7   6 53531.5 2844.64   2
   5   7   7 6019.05 918.237   2
   5   7   7 7385.15 1039.91   5
   5   7   7 6756.44 607.005   4
   5   7   8 44021.4 2608.05   5
   5   7   8 45887.2 1861.30   4
   5   7   8 44676.8 2590.10   2
   5   7   9 6485.41 1009.49   5
   5   7   9 5777.68 695.777   4
   5   7  10 7737.26 1085.58   5
   5   7  10 8014.71 866.426   4
   5   7  11 12756.8 1413.62   5
   5   7  11 15902.3 1316.45   4
   5   7  12 94.5573 205.130   4
   5   7  12 614.695 375.999   5
   5   7  13 34461.3 2346.63   5
   5   7  13 38200.7 2297.39   4
   5   7  14 5941.09 952.387   4
   5   7  14 4640.57 918.395   1
   5   7  14 4437.58 859.844   5
   5   7  15 13574.3 1540.79   1
   5   7  15 15390.4 1550.91   5
   5   7  15 15603.7 1607.92   4
   5   7  16 7410.53 1174.56   1
   5   7  16 9226.19 1202.35   5
   5   7  16 11740.7 1455.17   4
   5   7  17 3440.55 857.156   4
   5   7  17 2322.68 689.445   1
   5   7  18 9233.73 1347.76   1
   5   7  18 10624.7 1494.81   4
   5   7  19 1917.32 699.791   4
   5   7  19 1293.00 532.265   1
   5   7  20 21065.6 2077.59   1
   5   7  20 25837.5 2524.10   4
   5   7  21 1334.07 582.263   4
   5   8 -13 6554.70 1287.26   2
   5   8 -12 11066.1 1659.95   2
   5   8 -11 872.204 497.227   2
   5   8 -10 20383.5 2114.38   2
   5   8  -9 10127.8 1454.55   2
   5   8  -8 16535.4 1819.77   2
   5   8  -8 16733.4 1523.00   5
   5   8  -7 19497.7 1957.63   2
   5   8  -7 21262.9 1742.02   5
   5   8  -6 6089.46 940.851   5
   5   8  -6 5028.07 959.623   2
   5   8  -5 17046.6 1751.83   2
   5   8  -5 15387.3 1504.00   5
   5   8  -4 4175.53 898.928   2
   5   8  -4 4007.95 763.793   5
   5   8  -3 48353.3 2899.27   2
   5   8  -3 41172.3 2520.35   5
   5   8  -2 12349.3 1470.55   2
   5   8  -2 10314.0 1267.30   5
   5   8  -1 39092.7 2585.91   2
   5   8  -1 38257.9 2436.60   5
   5   8   0 29274.1 2242.68   2
   5   8   0 27847.0 2070.56   5
   5   8   1 110.268 482.350   2
   5   8   1 374.797 260.527   5
   5   8   2 31179.0 2279.47   2
   5   8   2 26298.6 2067.12   5
   5   8   3 3871.22 792.723   5
   5   8   3 3984.24 839.461   2
   5   8   4 75866.9 3607.47   5
   5   8   4 86260.2 3853.74   2
   5   8   5 6759.04 1055.76   5
   5   8   5 6415.12 1070.13   2
   5   8   6 19996.4 1798.13   5
   5   8   6 18664.0 1757.59   2
   5   8   7 21763.5 1892.55   5
   5   8   7 20759.7 1837.93   2
   5   8   8 761.029 462.172   2
   5   8   8 292.328 371.113   5
   5   8   9 20803.2 1883.44   5
   5   8   9 18489.4 1774.73   2
   5   8  10 1858.90 570.514   5
   5   8  11 20291.5 1851.46   5
   5   8  12 4304.99 877.806   5
   5   8  13 18293.9 1783.19   5
   5   8  13 19284.8 1613.62   4
   5   8  14 13118.0 1561.25   1
   5   8  14 16168.1 1669.08   5
   5   8  14 17988.0 1632.14   4
   5   8  15 7659.57 1132.18   4
   5   8  15 6237.33 1062.12   5
   5   8  15 8761.78 1316.05   1
   5   8  16 24358.5 2082.19   5
   5   8  16 24394.4 2206.28   1
   5   8  16 29851.8 2320.83   4
   5   8  17 432.794 427.001   4
   5   8  17 651.927 467.745   1
   5   8  18 12454.3 1632.17   4
   5   8  18 13442.7 1671.47   1
   5   8  19 4242.73 1014.82   4
   5   8  19 2715.83 812.081   1
   5   8  20 3571.49 904.794   1
   5   9 -12 19841.6 2314.01   2
   5   9 -11 8570.62 1512.19   2
   5   9 -10 8758.97 1504.27   2
   5   9  -9 8331.21 1417.50   2
   5   9  -8 4492.91 1048.79   2
   5   9  -7 15921.7 1860.49   2
   5   9  -7 13437.7 1443.35   5
   5   9  -6 1307.89 609.739   2
   5   9  -6 571.577 371.221   5
   5   9  -5 13897.5 1682.73   2
   5   9  -5 16789.3 1647.73   5
   5   9  -4 11185.9 1500.69   2
   5   9  -4 9497.62 1268.52   5
   5   9  -3 3356.38 791.098   2
   5   9  -3 2676.68 709.876   5
   5   9  -2 28677.9 2353.95   2
   5   9  -2 26133.9 2095.27   5
   5   9  -1 131.591 418.488   2
   5   9  -1 751.057 505.935   5
   5   9   0 59155.4 3387.76   2
   5   9   0 51859.8 3033.84   5
   5   9   1 10292.1 1397.18   2
   5   9   1 11536.0 1405.11   5
   5   9   2 23367.0 2018.26   5
   5   9   2 25990.1 2195.05   2
   5   9   3 12615.8 1506.98   5
   5   9   3 11617.4 1475.02   2
   5   9   4 11579.4 1418.04   5
   5   9   4 13377.1 1578.17   2
   5   9   5 24252.4 2084.20   5
   5   9   5 26533.8 2215.00   2
   5   9   6 1108.25 607.393   5
   5   9   6 387.015 420.620   2
   5   9   7 32267.2 2444.73   5
   5   9   7 33333.6 2493.49   2
   5   9   8 4189.04 898.196   2
   5   9   8 4224.06 861.760   5
   5   9   9 25042.4 2153.95   5
   5   9   9 26824.7 2253.52   2
   5   9  10 10629.8 1438.59   5
   5   9  11 6517.59 1125.31   5
   5   9  12 11218.0 1463.71   5
   5   9  13-1319.82 552.846   5
   5   9  14 17357.3 1905.47   1
   5   9  14 17025.4 1803.97   5
   5   9  15 1960.04 668.523   5
   5   9  15 702.410 360.469   1
   5   9  16 9362.75 1444.52   1
   5   9  16 11993.8 1526.16   5
   5   9  17 22285.6 2249.45   1
   5   9  18 1742.81 653.693   1
   5  10 -10 503.750 590.181   2
   5  10  -9 11357.4 1750.40   2
   5  10  -8 6080.58 1276.00   2
   5  10  -7 3247.90 979.075   2
   5  10  -7 4587.31 906.743   5
   5  10  -6 19125.2 2127.03   2
   5  10  -6 16732.8 1701.86   5
   5  10  -5 10.6511 438.869   2
   5  10  -5 609.798 373.787   5
   5  10  -4 14936.2 1831.94   2
   5  10  -4 16185.3 1703.28   5
   5  10  -3 5354.77 1065.72   2
   5  10  -3 3175.61 789.071   5
   5  10  -2 22560.8 2232.28   2
   5  10  -2 17998.8 1817.17   5
   5  10  -1 2553.34 788.095   2
   5  10  -1 3573.62 824.426   5
   5  10   0 30433.9 2542.62   2
   5  10   0 23454.7 2109.88   5
   5  10   1 30899.0 2422.45   5
   5  10   1 34694.8 2710.37   2
   5  10   2 3981.24 874.127   5
   5  10   2 7082.71 1271.47   2
   5  10   3 25643.9 2218.63   5
   5  10   3 24837.4 2274.49   2
   5  10   4 592.657 456.968   5
   5  10   4 875.567 651.006   2
   5  10   5 27566.1 2324.38   5
   5  10   5 29954.2 2479.19   2
   5  10   6 11562.1 1499.32   5
   5  10   6 10928.0 1503.10   2
   5  10   7 5731.75 1093.38   2
   5  10   7 5489.20 1054.61   5
   5  10   8 24567.6 2232.45   5
   5  10   8 26071.2 2303.19   2
   5  10   9 951.653 493.700   2
   5  10   9 591.410 461.137   5
   5  10  10 20995.1 2064.96   5
   5  10  11 355.558 377.940   5
   5  10  12 17052.2 1880.18   5
   5  10  13 9308.99 1408.89   5
   5  10  14 1296.27 629.438   5
   5  10  14 2326.57 816.635   1
   5  10  15 14105.1 1803.74   1
   5  10  15 12666.9 1654.66   5
   5  10  16 85.2613 415.525   1
   5  10  16-309.219 431.776   5
   5  11  -8 15523.5 2074.94   2
   5  11  -7-739.976 825.534   2
   5  11  -6 7417.79 1422.14   2
   5  11  -6 6758.56 1143.92   5
   5  11  -5 322.590 484.849   2
   5  11  -5 177.108 291.853   5
   5  11  -4 11578.0 1749.66   2
   5  11  -4 10968.5 1467.74   5
   5  11  -3 5470.18 1198.35   2
   5  11  -3 8340.20 1299.62   5
   5  11  -2 4653.40 1085.84   2
   5  11  -2 3264.11 879.276   5
   5  11  -1 22639.4 2359.74   2
   5  11  -1 19688.9 2000.87   5
   5  11   0-261.036 385.285   2
   5  11   0 70.0315 350.663   5
   5  11   1 31500.8 2550.65   5
   5  11   1 33260.4 2796.79   2
   5  11   2 9327.08 1401.30   5
   5  11   2 8539.94 1444.17   2
   5  11   3 18127.8 1942.58   5
   5  11   3 20943.4 2217.40   2
   5  11   4 14738.6 1764.84   5
   5  11   4 14539.7 1823.14   2
   5  11   5 2307.93 723.154   5
   5  11   5 2452.91 841.646   2
   5  11   6 21746.5 2179.88   5
   5  11   6 22576.9 2248.75   2
   5  11   7-440.902 477.105   2
   5  11   7-90.0124 302.221   5
   5  11   8 20030.6 2116.02   5
   5  11   8 21428.4 2225.15   2
   5  11   9 3117.29 892.518   5
   5  11   9 3774.38 942.402   2
   5  11  10 3821.74 963.671   5
   5  11  11 15903.8 1905.15   5
   5  11  12 579.637 464.057   5
   5  11  13 15263.8 1903.04   1
   5  11  13 12735.1 1720.94   5
   5  11  14 1410.07 626.162   5
   5  11  14 1369.65 740.449   1
   5  11  15 3266.98 893.974   5
   5  11  16 11570.0 1660.84   5
   5  12  -6 4265.86 1131.78   2
   5  12  -5 17517.3 2230.85   2
   5  12  -5 13553.7 1702.35   5
   5  12  -4 153.831 540.087   2
   5  12  -4 377.492 383.425   5
   5  12  -3 18126.4 2275.72   2
   5  12  -3 13787.6 1728.35   5
   5  12  -2 4475.03 1193.36   2
   5  12  -2 4217.56 986.004   5
   5  12  -1 9808.39 1645.83   2
   5  12  -1 10845.5 1516.29   5
   5  12   0 19269.2 2069.31   5
   5  12   0 21978.5 2428.24   2
   5  12   1 5021.71 1075.40   5
   5  12   1 6779.07 1392.90   2
   5  12   2 18336.2 2031.35   5
   5  12   2 22183.8 2385.68   2
   5  12   3 1775.02 699.779   5
   5  12   3 2403.29 852.456   2
   5  12   4 17465.2 1993.21   5
   5  12   4 20977.9 2304.27   2
   5  12   5-9.27776 448.952   5
   5  12   5 497.527 504.778   2
   5  12   6 4858.25 1094.57   5
   5  12   6 6283.74 1327.35   2
   5  12   7 5252.95 1237.67   2
   5  12   7 3348.67 957.656   5
   5  12   8 1654.42 748.600   2
   5  12   8 2319.37 810.439   5
   5  12   9 21031.5 2268.44   5
   5  12   9 22057.6 2382.95   2
   5  12  10 4822.63 1088.25   5
   5  12  11 10866.8 1634.39   5
   5  12  12 5847.65 1241.06   5
   5  12  13 9071.10 1535.74   5
   5  13  -5 9020.75 1427.69   5
   5  13  -4 9856.85 1497.57   5
   5  13  -3 3917.21 940.471   5
   5  13  -2 4252.50 1029.24   5
   5  13  -1-66.9846 319.894   5
   5  13  -1 1647.40 857.727   2
   5  13   0 16343.9 2013.89   5
   5  13   0 16704.3 2227.87   2
   5  13   1 935.146 665.328   5
   5  13   1-772.049 722.404   2
   5  13   2 8461.35 1470.56   5
   5  13   2 8084.32 1524.21   2
   5  13   3 1171.93 653.745   5
   5  13   3 1697.54 933.580   2
   5  13   4 7379.81 1368.46   5
   5  13   4 6488.41 1375.28   2
   5  13   5 7688.63 1386.35   5
   5  13   5 7343.45 1447.36   2
   5  13   6 325.685 619.684   2
   5  13   6 1347.82 627.286   5
   5  13   7 18439.2 2184.84   5
   5  13   7 22264.7 2498.69   2
   6 -11  -2 734.159 606.703   6
   6 -11  -1 7586.45 1510.54   6
   6 -11   0 5809.44 1318.45   6
   6 -11   1 4726.87 1229.29   6
   6 -11   2 10215.3 1768.75   6
   6 -11   3 104.550 465.384   6
   6 -11   4 18555.4 2333.82   6
   6 -11   5 2570.47 874.944   6
   6 -11   6 5923.35 1305.39   6
   6 -10  -6 657.891 761.381   6
   6 -10  -5 10259.8 1736.60   6
   6 -10  -4 7185.40 1488.87   6
   6 -10  -3 7219.13 1465.63   6
   6 -10  -2 11488.6 1815.88   6
   6 -10  -1 1010.29 630.079   6
   6 -10   0 23835.7 2538.74   6
   6 -10   1-66.3308 496.733   6
   6 -10   2 18275.3 2232.25   6
   6 -10   3 4382.91 1167.31   6
   6 -10   4 1568.64 708.715   6
   6 -10   5 13252.0 1876.33   6
   6 -10   6 108.704 586.511   6
   6 -10   7 19889.9 2390.97   6
   6 -10   8 618.474 509.518   6
   6 -10   9 10981.1 1824.95   6
   6 -10  10 3375.46 1000.34   6
   6 -10  10 3905.50 1112.33   4
   6  -9  -9 19892.3 2431.82   6
   6  -9  -8 1190.11 720.716   6
   6  -9  -7 11095.3 1791.57   6
   6  -9  -6 6700.34 1360.24   6
   6  -9  -5 4398.45 1118.82   6
   6  -9  -4 26166.3 2590.89   6
   6  -9  -3 1194.61 698.343   6
   6  -9  -2 30131.4 2785.50   6
   6  -9  -1 4905.04 1154.76   6
   6  -9   0 11046.9 1677.57   6
   6  -9   1 20758.9 2255.22   6
   6  -9   2 2796.37 867.559   6
   6  -9   3 25569.6 2540.22   6
   6  -9   4-675.499 572.705   6
   6  -9   5 13726.7 1875.14   6
   6  -9   6 5806.66 1257.90   6
   6  -9   7 2063.79 831.222   6
   6  -9   8 11127.5 1729.49   6
   6  -9   9-48.1334 578.787   6
   6  -9  10 8260.67 1520.38   6
   6  -9  10 13827.4 1950.02   4
   6  -9  11 184.997 426.289   4
   6  -9  12 15754.7 2168.01   4
   6  -9  13 3810.17 1183.33   4
   6  -8 -10 11817.8 1843.51   6
   6  -8  -9 701.765 628.866   6
   6  -8  -8 24472.1 2557.99   6
   6  -8  -7 199.870 422.859   6
   6  -8  -6 34030.8 2915.26   6
   6  -8  -5 585.266 605.864   6
   6  -8  -4 34420.7 2868.48   6
   6  -8  -3 10805.6 1585.94   6
   6  -8  -2 7318.11 1330.81   6
   6  -8  -1 21013.2 2216.62   6
   6  -8   0 690.301 494.489   6
   6  -8   1 27140.7 2477.78   6
   6  -8   2 1519.54 618.009   6
   6  -8   3 17917.8 2017.31   6
   6  -8   4 15451.3 1876.05   6
   6  -8   5 3737.88 932.099   6
   6  -8   6 20328.3 2183.77   6
   6  -8   7-278.368 386.977   6
   6  -8   8 11232.0 1676.50   6
   6  -8   9 3534.84 1020.29   6
   6  -8  10 9981.13 1630.54   4
   6  -8  10 9392.91 1599.02   6
   6  -8  11 7657.82 1431.82   4
   6  -8  12 7349.20 1472.43   4
   6  -8  13 16559.2 2215.88   4
   6  -8  14 294.542 450.173   4
   6  -7 -12 22373.5 2560.00   6
   6  -7 -11-453.949 507.778   6
   6  -7 -10 34521.4 3035.40   6
   6  -7  -9 500.691 502.145   6
   6  -7  -8 29745.2 2714.07   6
   6  -7  -7 5632.25 1172.32   6
   6  -7  -6 9291.33 1478.62   6
   6  -7  -5 14796.8 1850.59   6
   6  -7  -4 6126.23 1216.55   6
   6  -7  -3 22612.6 2189.96   6
   6  -7  -2 493.174 505.030   6
   6  -7  -1 37913.4 2824.92   6
   6  -7   0 15882.9 1831.23   6
   6  -7   1 20605.8 2065.24   6
   6  -7   2 26416.3 2330.37   6
   6  -7   3 1092.04 637.279   6
   6  -7   4 19689.8 2023.67   6
   6  -7   5 1231.69 543.735   6
   6  -7   6 35801.3 2771.94   6
   6  -7   7 10085.2 1503.07   6
   6  -7   8 6282.16 1233.34   6
   6  -7   9 31806.0 2752.50   6
   6  -7  10 1433.28 703.557   4
   6  -7  10 1262.45 674.256   6
   6  -7  11 11255.6 1688.85   4
   6  -7  12 5397.33 1261.82   4
   6  -7  13 11140.6 1772.17   4
   6  -7  14 17766.7 2280.05   4
   6  -7  15 5549.73 1298.45   4
   6  -7  16 15231.4 2176.52   4
   6  -6 -13 625.848 617.656   6
   6  -6 -12 19241.9 2293.42   6
   6  -6 -11 4280.92 1076.64   6
   6  -6 -10 20796.4 2283.12   6
   6  -6  -9 19054.8 2131.47   6
   6  -6  -8 4788.29 1098.97   6
   6  -6  -7 17019.7 1948.86   6
   6  -6  -6-445.947 518.694   6
   6  -6  -5 17648.3 1909.22   6
   6  -6  -4 9874.20 1420.41   6
   6  -6  -3 45544.2 2988.39   6
   6  -6  -2 23530.0 2118.56   6
   6  -6  -1 10544.0 1387.65   6
   6  -6   0 34926.3 2563.76   6
   6  -6   1 709.087 468.676   6
   6  -6   2 25129.0 2157.82   6
   6  -6   3 14471.5 1655.14   6
   6  -6   4 20195.2 1975.69   6
   6  -6   5 59558.9 3402.18   6
   6  -6   6 35074.4 2617.81   6
   6  -6   7 45087.1 3017.86   6
   6  -6   8 549.418 459.125   6
   6  -6   9 14691.9 1797.38   6
   6  -6  10 13520.6 1769.89   4
   6  -6  10 15847.6 1893.98   6
   6  -6  11 2396.60 797.382   4
   6  -6  12 16266.7 2005.45   4
   6  -6  13 1378.24 608.087   4
   6  -6  14 13302.1 1894.92   4
   6  -6  15 155.838 393.698   4
   6  -6  16 13259.6 1995.45   4
   6  -6  17 7008.05 1533.53   4
   6  -5 -14 14674.1 2040.70   6
   6  -5 -13 7054.43 1388.88   6
   6  -5 -12 3430.46 1034.14   6
   6  -5 -11 23241.3 2396.82   6
   6  -5 -10 4719.06 1084.32   6
   6  -5  -9 18667.4 2042.41   6
   6  -5  -8 1377.93 656.041   6
   6  -5  -7 22611.1 2136.81   6
   6  -5  -6 20042.5 1953.46   6
   6  -5  -5 6162.10 1087.44   6
   6  -5  -4 44654.9 2856.31   6
   6  -5  -3 3978.48 852.144   6
   6  -5  -2 45483.8 2814.83   6
   6  -5  -1 27574.5 2166.40   6
   6  -5   0 71197.8 3554.12   6
   6  -5   1 59240.1 3228.31   6
   6  -5   2 81319.5 3833.25   6
   6  -5   3 31724.2 2334.97   6
   6  -5   4 8350.65 1181.25   6
   6  -5   5 32838.3 2392.73   6
   6  -5   6 2367.61 685.702   6
   6  -5   7 18825.6 1869.70   6
   6  -5   8 16808.2 1781.07   6
   6  -5   9-156.685 371.446   6
   6  -5  10 29063.6 2452.78   4
   6  -5  10 31570.3 2583.78   6
   6  -5  11 1832.39 786.285   4
   6  -5  12 11678.4 1632.66   4
   6  -5  13 17496.3 2043.62   4
   6  -5  14 8193.40 1492.90   4
   6  -5  15 22603.0 2455.59   4
   6  -5  16 2338.46 845.936   4
   6  -5  17 21520.0 2524.43   4
   6  -5  18-1960.22 838.893   4
   6  -4 -15 8744.58 1584.32   6
   6  -4 -14 4391.95 1101.53   6
   6  -4 -13 8544.28 1512.14   6
   6  -4 -12-112.725 499.860   6
   6  -4 -11 11387.9 1619.81   6
   6  -4 -10 9844.39 1479.13   6
   6  -4  -9 30968.3 2535.53   6
   6  -4  -8 36534.2 2700.19   6
   6  -4  -7 1525.41 638.791   6
   6  -4  -6 58671.3 3291.70   6
   6  -4  -5 39499.6 2619.18   6
   6  -4  -4 38497.3 2536.24   6
   6  -4  -3 77362.2 3622.45   6
   6  -4  -2 77255.1 3569.36   6
   6  -4  -1 46671.2 2698.59   6
   6  -4   0 39454.5 2460.59   6
   6  -4   1 53816.7 2906.88   6
   6  -4   2 2127.71 655.179   6
   6  -4   3 6311.05 1007.64   6
   6  -4   4 16637.0 1605.00   6
   6  -4   5 2489.41 665.407   6
   6  -4   6 50772.9 2899.83   6
   6  -4   7 141.483 335.374   6
   6  -4   8 51373.7 3024.66   6
   6  -4   9 2985.18 786.308   6
   6  -4  10 19835.4 1959.36   4
   6  -4  10 22981.4 2113.69   6
   6  -4  11 29215.5 2452.60   4
   6  -4  12 5601.90 1095.20   4
   6  -4  13 30500.6 2627.51   4
   6  -4  14 1384.77 657.244   4
   6  -4  15 24292.1 2478.08   4
   6  -4  16 4130.41 1121.78   4
   6  -4  17 9782.44 1670.69   4
   6  -4  18 7406.58 1530.10   4
   6  -4  19 2051.31 859.818   4
   6  -3 -16 814.461 590.089   6
   6  -3 -15 12515.8 1846.70   6
   6  -3 -14 293.095 449.623   6
   6  -3 -13 13727.6 1848.76   6
   6  -3 -12 25633.0 2438.06   6
   6  -3 -11 6754.74 1200.06   6
   6  -3 -10 48441.0 3195.19   6
   6  -3  -9 3074.17 798.393   6
   6  -3  -8 40011.4 2707.16   6
   6  -3  -7 21676.0 1947.93   6
   6  -3  -6 34606.9 2416.54   6
   6  -3  -5 61257.6 3157.54   6
   6  -3  -4 14063.2 1444.49   6
   6  -3  -3 45206.8 2589.25   6
   6  -3  -2-89.3101 277.880   6
   6  -3  -1 31486.6 2072.74   6
   6  -3  -1 27768.5 750.854   2
   6  -3   0 18167.3 1573.62   6
   6  -3   1 32811.0 2127.87   6
   6  -3   2 53882.2 2767.76   6
   6  -3   3 2498.40 659.126   6
   6  -3   4 56182.0 2857.77   6
   6  -3   5 895.340 339.947   6
   6  -3   6 35566.2 2285.28   6
   6  -3   7 16678.4 1590.07   6
   6  -3   8 11073.6 1326.20   6
   6  -3   9 31398.8 2312.85   6
   6  -3  10 1223.29 535.763   4
   6  -3  11 63943.1 3566.29   4
   6  -3  12 1606.05 627.418   4
   6  -3  13 23032.8 2246.79   4
   6  -3  14 5483.71 1128.09   4
   6  -3  15 9989.43 1561.06   4
   6  -3  16 12451.0 1763.46   4
   6  -3  17 456.641 439.984   4
   6  -3  18 19608.6 2342.29   4
   6  -3  19 6731.40 1450.58   4
   6  -2 -16 8098.37 1544.01   6
   6  -2 -15 17109.2 2085.92   6
   6  -2 -14 23411.3 2341.39   6
   6  -2 -13 26.9943 336.465   6
   6  -2 -12 25736.6 2359.86   6
   6  -2 -11 8730.67 1349.85   6
   6  -2 -10 10610.5 1399.01   6
   6  -2  -9 28916.7 2271.34   6
   6  -2  -8 4987.39 941.599   6
   6  -2  -7 23092.4 1907.50   6
   6  -2  -6 4218.63 809.135   6
   6  -2  -5 68278.6 3220.88   6
   6  -2  -4 16098.3 1490.69   6
   6  -2  -3 51269.1 2658.14   6
   6  -2  -2 55450.1 2676.11   6
   6  -2  -2 51181.2 1443.66   2
   6  -2  -1 11733.4 1184.90   6
   6  -2   0 64217.8 2861.63   6
   6  -2   1 620.740 330.781   6
   6  -2   2 83893.5 3357.75   6
   6  -2   3 22644.2 1677.12   6
   6  -2   4 27704.5 1867.26   6
   6  -2   5 38638.7 2246.71   6
   6  -2   6 5201.60 857.676   6
   6  -2   7 47885.3 2627.71   6
   6  -2   8-66.2240 345.311   6
   6  -2   9 51207.1 2884.95   4
   6  -2   9 49883.9 2830.42   6
   6  -2  10 98.1599 316.843   4
   6  -2  11 31083.5 2373.94   4
   6  -2  12 12712.3 1563.62   4
   6  -2  13 7220.48 1219.21   4
   6  -2  14 35821.7 2793.35   4
   6  -2  15 1263.06 614.061   4
   6  -2  16 23208.4 2354.25   4
   6  -2  17 18086.9 2154.79   4
   6  -2  18 1653.43 709.806   4
   6  -2  19 32703.4 3066.20   4
   6  -2  20 487.191 371.100   4
   6  -1 -17 3011.66 917.300   6
   6  -1 -16 20692.8 2336.24   6
   6  -1 -15 2494.46 830.748   6
   6  -1 -14 11168.1 1598.65   6
   6  -1 -13 11755.5 1608.90   6
   6  -1 -12 2798.75 786.637   6
   6  -1 -11 16424.0 1755.54   6
   6  -1 -10 7318.78 1123.03   6
   6  -1  -9 22077.1 1905.45   6
   6  -1  -8 3983.19 817.851   6
   6  -1  -7 35593.1 2293.34   6
   6  -1  -6 26565.7 1922.15   6
   6  -1  -5 29112.4 1967.79   6
   6  -1  -4 56738.7 2716.26   6
   6  -1  -3 2879.22 602.062   6
   6  -1  -2 102976. 2303.58   2
   6  -1  -2 103837. 3651.94   6
   6  -1  -1 13531.0 1211.57   6
   6  -1  -1 12887.8 521.173   2
   6  -1   0 63689.3 2702.72   6
   6  -1   1 28118.6 1744.03   6
   6  -1   2 4371.90 710.461   6
   6  -1   3 93380.9 3381.64   6
   6  -1   4 1171.30 388.605   6
   6  -1   5 107308. 3740.81   6
   6  -1   6 547.444 354.759   6
   6  -1   7 50132.2 2561.85   6
   6  -1   8 443.614 296.199   6
   6  -1   9 6203.70 978.504   4
   6  -1  10 40417.0 2561.53   4
   6  -1  11 1208.45 528.063   4
   6  -1  12 45123.7 2921.84   4
   6  -1  13 27142.1 2290.57   4
   6  -1  14 33802.3 2653.03   4
   6  -1  15 35369.0 2773.53   4
   6  -1  16 1212.35 615.496   4
   6  -1  17 14215.2 1863.81   4
   6  -1  18 967.441 600.230   4
   6  -1  19 18859.7 2285.08   4
   6  -1  20 2471.70 876.921   4
   6   0 -17 4412.08 1101.94   6
   6   0 -16 7325.25 1398.97   6
   6   0 -15 9247.72 1437.13   6
   6   0 -14 2957.67 789.597   6
   6   0 -13 24176.6 2225.83   6
   6   0 -12-79.7022 319.826   6
   6   0 -11 35167.5 2506.35   6
   6   0 -10 8321.94 1186.22   6
   6   0  -9 18842.1 1689.59   6
   6   0  -8 15974.9 1513.01   6
   6   0  -7-279.883 319.650   6
   6   0  -6 69455.0 3084.89   6
   6   0  -5 1932.46 516.299   6
   6   0  -4 71692.7 2962.83   6
   6   0  -3 13398.0 823.596   2
   6   0  -3 12478.7 1136.04   6
   6   0  -2 68861.6 1924.86   2
   6   0  -2 71106.4 2775.34   6
   6   0  -1 35475.0 1181.42   2
   6   0  -1 36255.1 1872.02   6
   6   0   0 9203.77 927.945   6
   6   0   0 10183.4 515.166   2
   6   0   1 42355.7 2012.49   6
   6   0   1 36548.1 882.820   2
   6   0   2 12104.6 1084.65   6
   6   0   3 111813. 3555.35   6
   6   0   4 20519.7 1405.46   6
   6   0   5 56592.2 2471.11   6
   6   0   6 69259.2 2863.99   6
   6   0   7 6178.90 841.678   6
   6   0   8 44070.0 2409.30   4
   6   0   9 12092.5 1297.37   4
   6   0  10 68671.7 3287.75   4
   6   0  11 41763.8 1430.13   1
   6   0  11 45862.7 2729.69   4
   6   0  12 4533.45 903.357   4
   6   0  13 31283.8 2408.06   4
   6   0  14 35.6339 271.327   4
   6   0  15 23289.4 2210.79   4
   6   0  16 479.578 394.331   4
   6   0  17 9601.06 1484.24   4
   6   0  18 15832.4 1998.67   4
   6   0  19 4473.93 1115.45   4
   6   0  20 23709.3 2597.07   4
   6   0  21-67.0244 446.197   4
   6   1 -10 43220.4 2650.67   6
   6   1  -9 1527.83 550.217   6
   6   1  -8 10592.5 1194.75   6
   6   1  -7 5242.66 811.299   6
   6   1  -6 56608.3 2635.53   6
   6   1  -5 34839.5 1960.04   6
   6   1  -4 15752.3 1037.06   2
   6   1  -4 16122.6 1266.37   6
   6   1  -3 36573.5 1555.95   2
   6   1  -3 41293.8 1992.56   6
   6   1  -2 1265.38 265.291   2
   6   1  -2 933.898 334.981   6
   6   1  -1 98987.4 3109.61   6
   6   1  -1 97200.7 2554.51   2
   6   1   0 7949.72 792.457   6
   6   1   0 8520.80 604.181   2
   6   1   1 61106.2 2309.09   6
   6   1   1 59954.4 1732.29   2
   6   1   2 47481.8 2010.75   6
   6   1   2 47456.8 1429.32   2
   6   1   3 12972.3 1020.01   6
   6   1   3 11721.1 643.430   2
   6   1   4 118349. 3515.08   6
   6   1   5 1325.96 332.202   6
   6   1   6 157949. 4444.32   6
   6   1   7 49252.2 2377.59   4
   6   1   8 16534.4 1404.61   4
   6   1   9 33635.6 2114.71   4
   6   1  10-14.7212 286.106   4
   6   1  11 42320.5 2564.77   4
   6   1  12 2512.86 654.088   4
   6   1  12 2768.74 421.008   1
   6   1  13 15983.3 1017.39   1
   6   1  13 16955.8 1693.59   4
   6   1  14 17731.8 1814.90   4
   6   1  15 29892.5 2436.15   4
   6   1  16 26147.6 2354.39   4
   6   1  17 714.671 408.888   4
   6   1  18 22741.2 2315.06   4
   6   1  19 5441.89 1180.24   4
   6   1  20 20813.0 2380.13   4
   6   1  21 9299.48 1639.28   4
   6   2  -8 13444.1 1302.20   6
   6   2  -7 19434.8 1478.98   6
   6   2  -6-226.093 258.492   6
   6   2  -6 164.568 243.692   2
   6   2  -5 64843.3 2497.87   2
   6   2  -5 67085.4 2670.44   6
   6   2  -4 10592.5 914.458   2
   6   2  -4 8115.46 853.665   6
   6   2  -3 57204.1 2153.73   2
   6   2  -3 55713.3 2227.36   6
   6   2  -2 48043.6 1889.66   2
   6   2  -2 48819.2 1981.32   6
   6   2  -1 36320.6 1618.35   6
   6   2  -1 34288.5 1529.85   2
   6   2   0 39710.5 1666.14   6
   6   2   0 36790.7 1557.27   2
   6   2   1 180.293 157.875   6
   6   2   1 214.480 228.615   2
   6   2   2 48271.8 1855.28   6
   6   2   2 48417.6 1755.07   2
   6   2   3 19461.7 1146.79   6
   6   2   3 20066.4 1063.79   2
   6   2   4 67976.8 2321.43   6
   6   2   4 61267.1 2016.86   2
   6   2   5 85308.4 2800.18   6
   6   2   6 24797.4 1517.75   4
   6   2   7 93646.3 3303.97   4
   6   2   8 10885.5 1098.30   4
   6   2   9 42652.2 2325.61   4
   6   2  10 10081.2 1143.29   4
   6   2  11 25076.3 1890.33   4
   6   2  12 24076.3 1905.25   4
   6   2  13 13189.9 1054.33   1
   6   2  13 12718.1 1456.15   4
   6   2  14 36278.4 1807.93   1
   6   2  14 41543.1 2708.88   4
   6   2  15 2729.10 744.150   4
   6   2  16 22342.4 2134.08   4
   6   2  17 8241.31 1375.78   4
   6   2  18 13228.3 1759.46   4
   6   2  19 10048.6 1576.96   4
   6   2  20 4808.08 1144.12   4
   6   2  21 9156.20 1637.36   4
   6   3 -10 28571.3 2040.34   2
   6   3  -9 56587.2 2815.29   2
   6   3  -8 5427.46 826.355   2
   6   3  -7 30568.9 1906.31   2
   6   3  -7 31699.4 1850.34   6
   6   3  -6 28582.9 1747.53   2
   6   3  -6 24889.4 1553.25   6
   6   3  -5 13370.4 1150.37   2
   6   3  -5 12559.2 1052.76   6
   6   3  -4 21928.2 1427.39   2
   6   3  -4 21768.6 1308.33   6
   6   3  -3 5565.00 702.791   2
   6   3  -3 5676.62 637.098   6
   6   3  -2 37267.6 1564.37   6
   6   3  -2 33834.9 1711.69   2
   6   3  -1 12932.3 841.625   6
   6   3  -1 12839.4 1017.06   2
   6   3   0 57944.4 1874.76   6
   6   3   0 57568.3 2232.51   2
   6   3   1 56475.4 1802.22   6
   6   3   1 54180.8 2151.60   2
   6   3   2 29321.0 1233.64   6
   6   3   2 25651.1 1422.43   2
   6   3   3 58976.2 1894.82   6
   6   3   3 55554.7 2156.33   2
   6   3   4-91.1346 178.456   2
   6   3   5 55786.1 2166.18   2
   6   3   5 63067.8 2278.84   4
   6   3   6 2239.32 457.569   4
   6   3   7 60772.9 2487.23   4
   6   3   8 42563.3 2128.10   4
   6   3   9 29936.1 1840.99   4
   6   3  10 62868.5 2851.66   4
   6   3  11 300.051 292.134   4
   6   3  12 22759.5 1813.59   4
   6   3  13 1248.81 471.814   4
   6   3  14 22783.5 1543.61   1
   6   3  14 24544.6 2036.81   4
   6   3  15 17962.8 1388.52   1
   6   3  15 21416.3 2008.72   4
   6   3  16 6024.56 1075.15   4
   6   3  17 27780.8 2424.03   4
   6   3  18-5.96328 327.341   4
   6   3  19 25662.0 2485.90   4
   6   3  20 3166.50 914.938   4
   6   3  21 12613.5 1850.30   4
   6   4 -16 15187.5 1890.21   2
   6   4 -15 13048.9 1688.23   2
   6   4 -14 17457.5 1883.01   2
   6   4 -13 19264.4 1913.04   2
   6   4 -12-121.599 321.096   2
   6   4 -11 12935.6 1493.58   2
   6   4 -10 4397.94 874.904   2
   6   4  -9 15431.6 1499.61   2
   6   4  -8 45984.0 2553.58   2
   6   4  -7 10863.8 1178.11   2
   6   4  -6 72600.7 3065.23   2
   6   4  -6 69431.3 2604.42   6
   6   4  -5 1117.81 412.142   2
   6   4  -5 1139.04 329.319   6
   6   4  -4 29941.5 1814.62   2
   6   4  -4 28836.7 1420.92   6
   6   4  -3 896.414 355.521   2
   6   4  -3 2019.66 343.649   6
   6   4  -2 37256.4 1404.07   6
   6   4  -2 39072.9 2004.47   2
   6   4  -1 22795.4 979.182   6
   6   4  -1 23951.5 1525.96   2
   6   4   0 1399.63 238.418   4
   6   4   0 1504.41 384.616   2
   6   4   0 2016.19 255.166   6
   6   4   1 57679.4 1490.59   6
   6   4   1 56520.6 2408.97   2
   6   4   1 52095.4 1586.55   4
   6   4   2 23140.3 1485.33   2
   6   4   3 65840.5 2615.65   2
   6   4   3 68409.7 2012.61   4
   6   4   4 11820.4 1065.29   2
   6   4   4 12262.7 829.322   4
   6   4   5 19846.9 1355.55   2
   6   4   5 20235.8 1147.17   4
   6   4   6 16220.1 1232.13   2
   6   4   6 16763.2 1106.77   4
   6   4   7 4930.11 630.609   4
   6   4   8 58064.2 2415.29   4
   6   4   9 1270.51 398.801   4
   6   4  10 64504.9 2809.13   4
   6   4  11 38301.2 2232.00   4
   6   4  12 9363.15 1130.42   4
   6   4  13 26675.6 2006.01   4
   6   4  14 5297.33 926.850   4
   6   4  15 38315.3 2223.31   5
   6   4  15 43323.3 2767.73   4
   6   4  16 4968.28 1009.92   4
   6   4  16 3804.42 718.205   1
   6   4  17 24490.4 2249.88   4
   6   4  17 23456.4 1758.12   1
   6   4  18 24248.6 2319.84   4
   6   4  19 7117.21 1313.00   4
   6   4  20 18574.7 2161.21   4
   6   4  21 1024.07 519.177   4
   6   5 -15 12378.4 1711.32   2
   6   5 -14 5235.27 1134.30   2
   6   5 -13 13888.4 1702.70   2
   6   5 -12 23365.4 2139.96   2
   6   5 -11 6900.41 1124.56   2
   6   5 -10 38019.4 2564.15   2
   6   5  -9 5786.78 1004.07   2
   6   5  -8 36885.3 2389.54   2
   6   5  -7 1188.42 467.704   2
   6   5  -6 75413.8 3336.93   2
   6   5  -5 8486.71 1063.07   2
   6   5  -5 7920.73 733.369   6
   6   5  -4 6994.61 943.605   2
   6   5  -4 7134.68 628.774   6
   6   5  -3 10484.0 678.722   6
   6   5  -3 11525.0 1161.85   2
   6   5  -2 2203.58 554.679   2
   6   5  -2 2185.93 264.336   6
   6   5  -1 24340.4 688.753   6
   6   5  -1 28856.5 1821.10   2
   6   5   0 20896.1 1548.80   2
   6   5   1 19129.0 1470.21   2
   6   5   1 14879.3 497.158   4
   6   5   1 16342.7 528.433   4
   6   5   2 35007.4 940.714   4
   6   5   2 39679.6 1002.30   4
   6   5   3 8821.46 1009.22   2
   6   5   3 9743.13 525.537   4
   6   5   4 63509.9 2743.62   2
   6   5   4 63203.3 1765.91   4
   6   5   5 53.7390 105.754   4
   6   5   5-94.3649 300.109   2
   6   5   6 25478.0 1701.39   2
   6   5   6 26888.9 1308.63   4
   6   5   7 13467.3 977.416   4
   6   5   7 9627.10 1052.40   2
   6   5   8 32244.7 1666.35   4
   6   5   9 14664.4 1171.69   4
   6   5  10 13594.7 1202.14   4
   6   5  11 120272. 4078.27   4
   6   5  12 415.533 299.548   4
   6   5  13 54953.5 2859.50   4
   6   5  14 9707.66 1161.50   5
   6   5  14 9821.19 1257.56   4
   6   5  15 11143.7 1251.72   1
   6   5  15 11704.6 1265.52   5
   6   5  15 9961.24 1311.02   4
   6   5  16 12480.6 1358.70   1
   6   5  16 15705.8 1716.64   4
   6   5  17 1131.96 577.190   4
   6   5  17 986.956 441.769   1
   6   5  18 33348.3 2690.18   4
   6   5  18 28156.5 2094.63   1
   6   5  19 1548.91 690.375   4
   6   5  20 21838.9 2342.43   4
   6   5  21 1185.88 647.966   4
   6   6 -15 5653.10 1160.53   2
   6   6 -14 31665.9 2732.16   2
   6   6 -13 6913.85 1249.41   2
   6   6 -12 39498.4 2897.11   2
   6   6 -11 4507.78 969.054   2
   6   6 -10 17568.1 1822.38   2
   6   6  -9 653.642 465.843   2
   6   6  -8 8621.49 1199.58   2
   6   6  -7 3263.32 698.603   2
   6   6  -6 4679.42 859.032   2
   6   6  -5 54106.6 2881.06   2
   6   6  -4 4834.90 865.867   2
   6   6  -3 34153.1 2192.58   2
   6   6  -2 17435.4 1541.48   2
   6   6  -1 8515.64 1074.47   2
   6   6   0 21116.2 1665.11   2
   6   6   1 2389.37 603.710   2
   6   6   2 64061.6 2977.82   2
   6   6   3 19638.0 1609.36   2
   6   6   4 84163.4 3459.42   2
   6   6   5 8132.18 1034.96   2
   6   6   5 6580.99 452.930   4
   6   6   6 4629.77 465.769   4
   6   6   6 4880.83 824.249   2
   6   6   7 54106.9 1924.17   4
   6   6   7 50232.2 2627.44   2
   6   6   8 701.667 324.713   4
   6   6   8 845.063 436.735   2
   6   6   9 56272.5 2313.04   4
   6   6  10 4499.30 665.900   4
   6   6  11 37719.9 2093.99   4
   6   6  12 27503.1 2056.01   5
   6   6  12 27741.4 1876.02   4
   6   6  13 6843.87 986.898   4
   6   6  13 7507.59 1072.15   5
   6   6  14 47755.3 2765.87   5
   6   6  14 46336.2 2715.71   4
   6   6  15 337.253 274.170   4
   6   6  15 410.817 396.073   1
   6   6  15 256.823 314.456   5
   6   6  16 16168.3 1615.08   1
   6   6  16 17701.9 1643.41   5
   6   6  16 18944.2 1854.82   4
   6   6  17 1640.78 562.543   4
   6   6  17 851.963 486.577   1
   6   6  18 10433.4 1484.47   4
   6   6  18 10033.0 1328.08   1
   6   6  19 12076.9 1652.03   4
   6   6  20 1074.03 712.862   4
   6   6  21 10031.9 1607.32   4
   6   7 -14 15407.8 1982.91   2
   6   7 -13 2233.51 754.169   2
   6   7 -12 15988.0 1926.37   2
   6   7 -11 707.138 465.292   2
   6   7 -10 3284.85 829.156   2
   6   7  -9 19439.0 1971.69   2
   6   7  -8-118.835 304.699   2
   6   7  -7 27143.6 2212.98   2
   6   7  -6 5333.43 962.778   2
   6   7  -5 24490.8 2020.17   2
   6   7  -4 10052.9 1275.77   2
   6   7  -3 2714.06 706.935   2
   6   7  -2 46937.7 2751.15   2
   6   7  -1 5866.52 992.494   2
   6   7   0 55848.9 2981.19   2
   6   7   1 8674.24 1154.86   2
   6   7   2 20953.8 1787.82   2
   6   7   3 42454.9 2552.26   2
   6   7   4 4427.06 816.953   2
   6   7   5 52352.7 2827.51   2
   6   7   6 1539.73 532.073   2
   6   7   7 32777.4 2224.29   2
   6   7   8 22406.7 1853.98   2
   6   7  10 31195.0 2281.94   5
   6   7  10 35041.4 1821.18   4
   6   7  11 1101.32 383.722   4
   6   7  11 794.248 419.708   5
   6   7  12 38882.6 2580.26   5
   6   7  12 42341.9 2280.23   4
   6   7  13-209.151 247.637   4
   6   7  13 249.878 335.675   5
   6   7  14 32265.1 2364.88   5
   6   7  14 33584.4 2239.40   4
   6   7  15 12619.6 1510.69   1
   6   7  15 12005.0 1432.55   5
   6   7  15 14911.9 1536.33   4
   6   7  16 1921.54 641.074   4
   6   7  16 1828.97 553.394   5
   6   7  16 2591.37 738.875   1
   6   7  17 9759.61 1361.62   1
   6   7  17 12844.6 1570.06   4
   6   7  18-1652.39 630.605   4
   6   7  18 270.492 398.243   1
   6   7  19 20233.4 2105.74   4
   6   7  19 17988.8 1891.57   1
   6   7  20 635.679 426.527   4
   6   7  21 10918.8 1678.53   4
   6   8 -13 14379.3 1936.67   2
   6   8 -12 2744.47 969.947   2
   6   8 -11 24444.7 2447.85   2
   6   8 -10 360.527 443.403   2
   6   8  -9 14628.5 1779.87   2
   6   8  -8 9163.86 1418.41   2
   6   8  -8 7223.45 1059.58   5
   6   8  -7 4134.42 1007.46   2
   6   8  -7 3943.59 803.651   5
   6   8  -6 22251.9 2076.04   2
   6   8  -5 297.193 306.848   2
   6   8  -4 34083.8 2520.62   2
   6   8  -3 2419.48 697.104   2
   6   8  -2 42554.8 2771.38   2
   6   8  -1 17699.5 1778.25   2
   6   8   0 10229.4 1360.78   2
   6   8   1 17051.8 1724.63   2
   6   8   2-271.783 425.725   2
   6   8   3 50966.4 2980.19   2
   6   8   4 11235.6 1360.77   2
   6   8   5 9482.83 1280.33   2
   6   8   6 37355.4 2566.54   5
   6   8   6 33724.8 2404.14   2
   6   8   7 870.780 445.628   2
   6   8   7 1412.45 611.392   5
   6   8   8 51870.5 3068.89   5
   6   8   8 49159.6 2931.07   2
   6   8   9 1281.73 550.070   2
   6   8   9 2137.50 668.761   5
   6   8  10 39298.3 2696.81   5
   6   8  11 7683.19 1202.50   5
   6   8  12 4092.96 889.371   5
   6   8  13 14347.6 1621.64   5
   6   8  14 2835.31 743.559   5
   6   8  15 19088.3 1926.88   1
   6   8  15 23452.3 2087.20   5
   6   8  16-326.448 472.677   5
   6   8  16 111.604 335.470   1
   6   8  17 19534.5 2022.84   1
   6   8  18 2314.16 762.895   1
   6   8  19 9064.65 1410.64   1
   6   8  20 7498.01 1334.41   1
   6   9 -11 5863.97 1290.56   2
   6   9 -10 18122.6 2134.36   2
   6   9  -9 494.558 504.293   2
   6   9  -8 19242.2 2127.04   2
   6   9  -7 182.367 442.596   2
   6   9  -7-42.0768 330.822   5
   6   9  -6 28251.0 2503.33   2
   6   9  -6 32721.2 2393.74   5
   6   9  -5 2849.44 857.710   2
   6   9  -5 1957.43 558.818   5
   6   9  -4 10906.8 1499.30   2
   6   9  -4 8119.69 1215.99   5
   6   9  -3 7923.28 1277.16   2
   6   9  -3 7456.33 1157.22   5
   6   9  -2 1025.25 576.673   2
   6   9  -2 521.262 325.807   5
   6   9  -1 29493.6 2433.83   2
   6   9  -1 28617.9 2274.45   5
   6   9   0 4035.01 923.866   2
   6   9   0 2778.98 730.635   5
   6   9   1 20361.0 2000.23   2
   6   9   1 18100.9 1826.22   5
   6   9   2 13299.4 1571.91   5
   6   9   2 15768.1 1739.64   2
   6   9   3 4610.23 930.730   5
   6   9   3 6089.49 1112.63   2
   6   9   4 36049.3 2614.48   5
   6   9   4 36938.6 2670.57   2
   6   9   5 1783.50 651.662   5
   6   9   5 4072.19 920.451   2
   6   9   6 38983.0 2739.35   5
   6   9   6 37638.1 2686.61   2
   6   9   7 8271.81 1271.96   2
   6   9   7 8336.90 1283.45   5
   6   9   8 12798.7 1576.38   5
   6   9   8 13241.1 1600.08   2
   6   9   9 17654.5 1863.11   5
   6   9   9 18526.6 1879.14   2
   6   9  10 6744.71 1148.68   5
   6   9  11 17196.7 1862.01   5
   6   9  12 1951.30 698.277   5
   6   9  13 16480.8 1843.93   5
   6   9  14 475.322 479.321   5
   6   9  15 7964.91 1294.80   5
   6   9  15 7352.46 1262.27   1
   6   9  16 16035.0 1902.45   1
   6   9  16 17908.7 1925.93   5
   6   9  17 5855.71 1193.23   1
   6   9  18 14053.8 1824.92   1
   6  10  -9 3835.94 1062.24   2
   6  10  -8 8646.97 1531.38   2
   6  10  -7 13703.7 1916.95   2
   6  10  -6 2735.92 811.322   2
   6  10  -6 2767.70 752.267   5
   6  10  -5 12176.9 1713.14   2
   6  10  -5 13552.9 1631.99   5
   6  10  -4 267.173 443.015   2
   6  10  -4 334.751 339.864   5
   6  10  -3 15977.7 1928.35   2
   6  10  -3 14743.3 1699.46   5
   6  10  -2 7765.69 1364.50   2
   6  10  -2 6514.51 1134.18   5
   6  10  -1 5917.69 1227.11   2
   6  10  -1 6196.17 1154.23   5
   6  10   0 28165.9 2491.97   2
   6  10   0 22654.5 2151.10   5
   6  10   1 543.673 557.023   2
   6  10   1 1175.89 525.193   5
   6  10   2 25003.5 2263.72   5
   6  10   2 24632.5 2332.53   2
   6  10   3-223.144 388.033   5
   6  10   3 87.6317 414.062   2
   6  10   4 13643.6 1684.00   5
   6  10   4 16595.5 1892.22   2
   6  10   5 4057.52 940.361   5
   6  10   5 3352.62 878.467   2
   6  10   6 3013.77 894.731   5
   6  10   6 2883.45 758.805   2
   6  10   7 28361.2 2440.50   5
   6  10   7 28679.6 2449.67   2
   6  10   8 64.4293 353.921   2
   6  10   8 121.646 424.959   5
   6  10   9 23717.0 2259.25   5
   6  10   9 20907.6 2125.27   2
   6  10  10 144.620 347.156   5
   6  10  11 17560.9 1962.91   5
   6  10  12 9538.08 1468.57   5
   6  10  13 13637.1 1737.01   5
   6  10  14 25294.8 2363.62   5
   6  10  15 1634.34 747.280   1
   6  10  15 94.8528 325.829   5
   6  10  16 8637.62 1407.59   5
   6  10  16 8777.61 1470.82   1
   6  11  -7 16647.6 2155.23   2
   6  11  -6 3025.00 952.658   2
   6  11  -6 3698.86 893.756   5
   6  11  -5 6777.73 1417.35   2
   6  11  -5 5875.03 1135.72   5
   6  11  -4 7519.68 1438.75   2
   6  11  -4 7611.21 1284.61   5
   6  11  -3 4564.07 1160.81   2
   6  11  -3 3833.75 900.512   5
   6  11  -2 12889.1 1836.74   2
   6  11  -2 11540.3 1577.38   5
   6  11  -1 321.350 575.449   2
   6  11  -1 154.449 352.278   5
   6  11   0 13175.7 1671.97   5
   6  11   0 13279.7 1842.53   2
   6  11   1 3781.69 1007.06   2
   6  11   1 3769.19 949.624   5
   6  11   2 8532.14 1401.45   5
   6  11   2 9552.03 1556.17   2
   6  11   3 10950.8 1579.76   5
   6  11   3 10919.4 1622.56   2
   6  11   4 1747.46 694.577   5
   6  11   4 2208.61 803.144   2
   6  11   5 12113.2 1688.21   5
   6  11   5 14927.0 1882.46   2
   6  11   6-452.797 423.668   5
   6  11   6-156.553 516.281   2
   6  11   7 23698.4 2336.75   5
   6  11   7 23509.8 2334.23   2
   6  11   8 8738.57 1487.38   2
   6  11   8 13308.4 1736.81   5
   6  11   9 19725.7 2140.47   5
   6  11   9 21222.6 2245.19   2
   6  11  10 27317.8 2508.49   5
   6  11  11 1713.78 605.926   5
   6  11  12 22130.2 2280.38   5
   6  11  13 1286.23 627.617   5
   6  11  14 2849.26 865.364   5
   6  11  15 4684.78 1083.29   5
   6  11  16 542.300 469.195   5
   6  12  -5-179.955 429.476   5
   6  12  -4 13763.9 2035.13   2
   6  12  -4 10774.2 1560.55   5
   6  12  -3-535.727 497.138   2
   6  12  -3-46.5828 334.336   5
   6  12  -2 10085.8 1688.11   2
   6  12  -2 8541.13 1391.84   5
   6  12  -1 9775.99 1664.81   2
   6  12  -1 8278.00 1427.31   5
   6  12   0 1647.16 811.672   2
   6  12   0 1287.08 629.723   5
   6  12   1 17536.1 2028.92   5
   6  12   1 21845.5 2430.33   2
   6  12   2-252.659 417.587   5
   6  12   2 1307.99 743.229   2
   6  12   3 15634.2 1929.37   5
   6  12   3 14564.1 1946.40   2
   6  12   4 3340.32 944.402   5
   6  12   4 1091.57 501.812   2
   6  12   5 10315.0 1607.57   5
   6  12   5 11906.5 1747.01   2
   6  12   6 9056.31 1510.37   5
   6  12   6 9310.54 1596.77   2
   6  12   7 5312.61 1232.37   2
   6  12   7 5729.64 1231.64   5
   6  12   8 31471.0 2818.97   5
   6  12   8 36240.6 3048.86   2
   6  12   9 1308.50 627.445   2
   6  12   9 985.012 524.895   5
   6  12  10 7765.20 1422.56   5
   6  12  11 5794.19 1285.52   5
   6  12  12 1471.15 662.430   5
   6  13  -4 5519.92 1187.89   5
   6  13  -3 13492.0 1804.22   5
   6  13  -2 1863.11 718.887   5
   6  13  -1 13231.4 1823.21   5
   6  13   0 297.629 482.167   5
   6  13   1 6595.70 1317.95   5
   6  13   1 5044.89 1326.81   2
   6  13   2 4120.49 1051.68   5
   6  13   2 4076.27 1049.92   2
   6  13   3 6776.94 1323.09   5
   6  13   3 5164.80 1318.12   2
   6  13   4 14501.0 1946.14   5
   6  13   4 14914.6 2109.85   2
   6  13   5 611.080 531.869   5
   6  13   5 412.708 546.054   2
   6  13   6 13262.1 1948.56   2
   7 -10  -2 59.0621 699.938   6
   7 -10  -1 20178.5 2478.99   6
   7 -10   0-338.636 731.535   6
   7 -10   1 13332.3 2028.81   6
   7 -10   2 5467.11 1343.64   6
   7 -10   3 7785.66 1539.03   6
   7 -10   4 15189.9 2122.56   6
   7 -10   5-938.356 695.735   6
   7 -10   6 25006.4 2751.63   6
   7  -9  -6 5636.89 1349.32   6
   7  -9  -5 9337.93 1680.61   6
   7  -9  -4 637.299 734.727   6
   7  -9  -3 14514.6 2082.85   6
   7  -9  -2 3565.97 1040.07   6
   7  -9  -1 8626.09 1585.30   6
   7  -9   0 29026.4 2800.63   6
   7  -9   1 1059.15 699.720   6
   7  -9   2 46271.9 3563.03   6
   7  -9   3-406.056 537.742   6
   7  -9   4 26616.3 2699.54   6
   7  -9   5 4671.32 1174.45   6
   7  -9   6 5349.01 1266.68   6
   7  -9   7 15464.7 2072.27   6
   7  -9   8 1402.79 794.816   6
   7  -9   9 7672.12 1566.09   6
   7  -9  10 266.509 551.102   4
   7  -9  10-1583.45 804.722   6
   7  -8  -8 559.278 680.627   6
   7  -8  -7 7994.18 1549.93   6
   7  -8  -6 1145.50 673.537   6
   7  -8  -5 12011.6 1826.19   6
   7  -8  -4 21325.5 2362.08   6
   7  -8  -3 5259.95 1307.08   6
   7  -8  -2 36019.2 3050.91   6
   7  -8  -1-325.792 690.234   6
   7  -8   0 42330.4 3290.89   6
   7  -8   1 2831.68 882.667   6
   7  -8   2 14311.3 1921.24   6
   7  -8   3 8025.07 1425.76   6
   7  -8   4 2616.51 892.806   6
   7  -8   5 29409.6 2724.30   6
   7  -8   6 231.794 466.063   6
   7  -8   7 21825.4 2382.31   6
   7  -8   8 2417.91 887.057   6
   7  -8   9 7538.58 1460.61   6
   7  -8  10 13693.1 1959.53   6
   7  -8  11 3866.29 1052.82   6
   7  -8  11 4386.41 1200.08   4
   7  -8  12 9455.55 1732.97   4
   7  -8  13-140.407 442.205   4
   7  -7 -10 679.532 646.764   6
   7  -7  -9 11942.5 1833.04   6
   7  -7  -8 10330.9 1706.34   6
   7  -7  -7 3557.22 1022.17   6
   7  -7  -6 22121.7 2377.01   6
   7  -7  -5 517.738 581.442   6
   7  -7  -4 24731.7 2449.09   6
   7  -7  -3 2312.55 859.249   6
   7  -7  -2 31222.6 2704.97   6
   7  -7  -1 5058.22 1149.92   6
   7  -7   0 3608.34 951.503   6
   7  -7   1 23645.7 2316.45   6
   7  -7   2 955.452 574.920   6
   7  -7   3 12553.2 1726.26   6
   7  -7   4 3531.80 967.458   6
   7  -7   5 32234.7 2733.49   6
   7  -7   6 12977.0 1744.33   6
   7  -7   7 15743.9 1929.70   6
   7  -7   8 14879.4 1904.60   6
   7  -7   9 796.316 544.489   6
   7  -7  10 19001.1 2279.76   6
   7  -7  11 6203.23 1364.16   6
   7  -7  11 7682.92 1435.71   4
   7  -7  12 20092.9 2381.97   4
   7  -7  13 14568.0 2096.40   4
   7  -7  14 12586.2 1977.97   4
   7  -6 -11 19077.1 2325.65   6
   7  -6 -10 21131.1 2400.81   6
   7  -6  -9 11132.4 1740.53   6
   7  -6  -8 20183.9 2275.19   6
   7  -6  -7 60.9853 422.914   6
   7  -6  -6 10109.5 1554.61   6
   7  -6  -5 8602.58 1403.10   6
   7  -6  -4 18106.6 1995.25   6
   7  -6  -3 20537.8 2105.63   6
   7  -6  -2 6295.70 1187.63   6
   7  -6  -1 22930.8 2222.22   6
   7  -6   0 2049.60 748.348   6
   7  -6   1 19640.7 2035.44   6
   7  -6   2 4671.00 1018.98   6
   7  -6   3 5730.99 1137.13   6
   7  -6   4 15926.9 1840.70   6
   7  -6   5-202.145 562.997   6
   7  -6   6 64508.6 3777.40   6
   7  -6   7 2076.75 732.498   6
   7  -6   8 58486.5 3679.27   6
   7  -6   9 23236.8 2336.84   6
   7  -6  10 45640.4 3363.93   6
   7  -6  11 20623.0 2307.05   6
   7  -6  11 24833.8 2506.85   4
   7  -6  12 8222.19 1473.12   4
   7  -6  13 7420.14 1411.16   4
   7  -6  14 226.545 478.281   4
   7  -6  15 6045.19 1362.34   4
   7  -6  16 5491.16 1353.55   4
   7  -5 -13 8203.52 1599.21   6
   7  -5 -12 9480.58 1633.46   6
   7  -5 -11 1956.84 842.141   6
   7  -5 -10 17231.0 2096.40   6
   7  -5  -9 621.785 517.573   6
   7  -5  -8 27642.6 2542.87   6
   7  -5  -7 10099.7 1535.61   6
   7  -5  -6 8536.22 1372.16   6
   7  -5  -5 18543.4 1961.82   6
   7  -5  -4 1222.05 590.093   6
   7  -5  -3 20375.3 2005.82   6
   7  -5  -2 7659.63 1249.20   6
   7  -5  -1 19931.6 1949.59   6
   7  -5   0 18661.3 1892.42   6
   7  -5   1 1825.97 695.323   6
   7  -5   2 31408.7 2440.46   6
   7  -5   3 684.155 505.954   6
   7  -5   4 54645.0 3256.64   6
   7  -5   5 33584.2 2554.71   6
   7  -5   6 82907.9 4145.87   6
   7  -5   7 26057.5 2302.37   6
   7  -5   8 36938.8 2780.29   6
   7  -5   9 27487.8 2430.40   6
   7  -5  10 369.629 427.999   6
   7  -5  11 7579.40 1322.68   6
   7  -5  11 10115.5 1528.14   4
   7  -5  12 8443.55 1451.67   4
   7  -5  13 7351.48 1408.47   4
   7  -5  14 10101.2 1670.89   4
   7  -5  15 644.944 461.073   4
   7  -5  16 27605.1 2885.36   4
   7  -5  17 1283.16 762.246   4
   7  -4 -13 113.284 379.295   6
   7  -4 -12 8645.75 1530.75   6
   7  -4 -11 9899.66 1554.99   6
   7  -4 -10 15015.1 1915.01   6
   7  -4  -9 10024.3 1521.15   6
   7  -4  -8 7263.35 1280.50   6
   7  -4  -7 25373.5 2302.45   6
   7  -4  -6 3234.50 819.024   6
   7  -4  -5 22191.6 2072.82   6
   7  -4  -4 25235.8 2144.43   6
   7  -4  -3 20944.6 1932.44   6
   7  -4  -2 14995.0 1614.19   6
   7  -4  -1 363.586 280.948   6
   7  -4   0 67548.5 3495.05   6
   7  -4   1 10397.5 1354.74   6
   7  -4   2 58937.9 3244.36   6
   7  -4   3 29275.9 2264.09   6
   7  -4   4 27199.8 2182.41   6
   7  -4   5 36687.1 2558.92   6
   7  -4   6-206.250 429.996   6
   7  -4   7 24950.9 2140.30   6
   7  -4   8 5388.88 1053.19   6
   7  -4   9 21116.1 2054.08   6
   7  -4  10 21154.7 2121.40   6
   7  -4  11 11080.0 1552.47   4
   7  -4  12 32549.0 2775.76   4
   7  -4  13 464.351 419.323   4
   7  -4  14 28327.1 2723.68   4
   7  -4  15 6591.02 1355.56   4
   7  -4  16 9732.73 1665.25   4
   7  -4  17 12153.3 1923.01   4
   7  -4  18 1515.14 889.329   4
   7  -3 -14 7984.85 1536.28   6
   7  -3 -13 6416.04 1304.43   6
   7  -3 -12 13599.2 1853.17   6
   7  -3 -11 23067.1 2341.36   6
   7  -3 -10 930.737 718.319   6
   7  -3  -9 30958.6 2577.58   6
   7  -3  -8 8705.71 1321.67   6
   7  -3  -7 32476.7 2533.66   6
   7  -3  -6 10939.6 1445.04   6
   7  -3  -5 12900.9 1510.11   6
   7  -3  -4 27967.3 2178.78   6
   7  -3  -3 526.607 335.086   6
   7  -3  -2 51842.7 2917.35   6
   7  -3  -1 21064.0 1815.39   6
   7  -3   0 30324.8 2166.92   6
   7  -3   1 51514.7 2868.17   6
   7  -3   2-95.9666 417.986   6
   7  -3   3 55987.9 3006.87   6
   7  -3   4 12468.2 1388.38   6
   7  -3   5 40390.2 2563.33   6
   7  -3   6 17862.5 1699.09   6
   7  -3   7 12784.1 1490.05   6
   7  -3   8 28808.4 2257.22   6
   7  -3   9 3698.93 871.588   6
   7  -3  10 51723.2 3202.53   4
   7  -3  10 49157.0 3122.28   6
   7  -3  11 729.410 465.429   4
   7  -3  12 24725.8 2329.76   4
   7  -3  13 21063.5 2186.66   4
   7  -3  14 7733.55 1410.85   4
   7  -3  15 20503.2 2291.89   4
   7  -3  16 2213.29 883.250   4
   7  -3  17 20286.1 2380.96   4
   7  -3  18-84.1800 543.332   4
   7  -3  19 18769.8 2444.82   4
   7  -2 -15 17391.3 2208.55   6
   7  -2 -14 475.225 350.842   6
   7  -2 -13 26297.0 2572.71   6
   7  -2 -12 4199.70 981.729   6
   7  -2 -11 27009.9 2460.68   6
   7  -2 -10 6893.13 1205.82   6
   7  -2  -9 13272.9 1634.95   6
   7  -2  -8 15370.5 1682.31   6
   7  -2  -7 591.242 448.575   6
   7  -2  -6 44780.9 2771.10   6
   7  -2  -5 5493.79 967.824   6
   7  -2  -4 39996.5 2509.83   6
   7  -2  -3 22031.7 1831.11   6
   7  -2  -2 9046.01 1160.54   6
   7  -2  -1 46913.3 2604.62   6
   7  -2   0 1661.22 511.591   6
   7  -2   1 62765.4 3044.91   6
   7  -2   2 27898.0 1989.55   6
   7  -2   3 24705.8 1867.57   6
   7  -2   4 55691.1 2869.02   6
   7  -2   5 4024.63 757.535   6
   7  -2   6 47830.2 2682.49   6
   7  -2   7 45.9913 321.192   6
   7  -2   8 45609.2 2742.13   6
   7  -2   9 18981.1 1823.30   6
   7  -2  10 8783.39 1261.81   4
   7  -2  11 30363.5 2459.02   4
   7  -2  12 7308.65 1234.12   4
   7  -2  13 30010.9 2591.45   4
   7  -2  14 779.444 449.749   4
   7  -2  15 48136.6 3439.46   4
   7  -2  16-22.0364 405.170   4
   7  -2  17 2574.81 910.219   4
   7  -2  18 12871.1 1911.97   4
   7  -2  19 443.497 567.093   4
   7  -1 -15 23994.0 2533.92   6
   7  -1 -14 15526.0 1976.43   6
   7  -1 -13 7039.29 1303.10   6
   7  -1 -12 24226.8 2324.40   6
   7  -1 -11-350.351 453.232   6
   7  -1 -10 20485.3 2007.62   6
   7  -1  -9-231.883 419.425   6
   7  -1  -8 28474.1 2241.41   6
   7  -1  -7 16478.4 1654.59   6
   7  -1  -6 11348.2 1320.07   6
   7  -1  -5 47792.4 2692.67   6
   7  -1  -4 2046.30 599.080   6
   7  -1  -3 46189.1 1522.70   2
   7  -1  -3 49546.9 2626.88   6
   7  -1  -2 5222.60 400.210   2
   7  -1  -2 5912.49 880.939   6
   7  -1  -1 64148.6 2931.64   6
   7  -1   0 6251.77 876.814   6
   7  -1   1 2410.44 584.473   6
   7  -1   2 82184.1 3347.03   6
   7  -1   3 145.063 267.459   6
   7  -1   4 135309. 4496.81   6
   7  -1   5 14124.0 1340.52   6
   7  -1   6 27754.0 1914.40   6
   7  -1   7 3214.16 725.268   6
   7  -1   8 5558.34 941.964   6
   7  -1   9 35914.2 2415.55   4
   7  -1   9 33011.4 2276.97   6
   7  -1  10-4.49183 290.752   4
   7  -1  11 55600.1 3222.74   4
   7  -1  12 2805.00 737.244   4
   7  -1  13 23341.4 2193.40   4
   7  -1  14 36014.5 2796.50   4
   7  -1  15 6846.89 1304.74   4
   7  -1  16 22792.5 2347.14   4
   7  -1  17 727.529 527.641   4
   7  -1  18 15234.7 2013.04   4
   7  -1  19 3923.29 1113.33   4
   7  -1  20 16920.0 2240.75   4
   7   0 -16 6247.60 1291.23   6
   7   0 -15 828.485 495.414   6
   7   0 -14 21377.8 2250.21   6
   7   0 -13 256.333 435.202   6
   7   0 -12 32772.0 2631.28   6
   7   0 -11 11332.5 1499.68   6
   7   0 -10 15537.0 1687.86   6
   7   0  -9 6320.15 1058.49   6
   7   0  -8 1780.18 587.158   6
   7   0  -7 32955.7 2261.89   6
   7   0  -6 7772.84 1053.41   6
   7   0  -5 86319.2 3586.08   6
   7   0  -4 8093.99 715.895   2
   7   0  -4 9913.14 1130.84   6
   7   0  -3 20376.3 1061.14   2
   7   0  -3 19489.3 1537.14   6
   7   0  -2 42327.5 1464.01   2
   7   0  -2 40711.0 2218.23   6
   7   0  -1 1508.96 241.974   2
   7   0  -1 1364.22 408.916   6
   7   0   0 49618.1 2371.57   6
   7   0   0 46158.8 1208.82   2
   7   0   1 336.378 321.106   6
   7   0   2 40801.7 2152.13   6
   7   0   3 5500.13 779.656   6
   7   0   4 29166.1 1826.23   6
   7   0   5 63315.9 2788.05   6
   7   0   6 611.729 342.744   6
   7   0   7 54100.0 2682.47   6
   7   0   8 0.88779 262.856   6
   7   0   9 53051.7 2869.64   4
   7   0  10 31991.3 2276.58   4
   7   0  11 18957.0 1802.90   4
   7   0  12 64162.9 3520.65   4
   7   0  13 813.003 470.781   4
   7   0  14 32845.5 2614.71   4
   7   0  15 3096.91 851.263   4
   7   0  16 15925.6 1919.72   4
   7   0  17 3279.20 912.956   4
   7   0  18 2985.64 944.311   4
   7   0  19 18328.9 2269.43   4
   7   0  20 165.798 429.556   4
   7   1 -16 4627.93 1087.99   6
   7   1 -15-193.950 482.156   6
   7   1 -14 9962.79 1484.76   6
   7   1 -13 4294.66 932.063   6
   7   1 -12 6598.04 1160.12   6
   7   1 -11 52149.3 3133.89   6
   7   1 -10 1627.16 578.204   6
   7   1  -9 51516.7 2928.27   6
   7   1  -8 5782.51 961.918   6
   7   1  -7 24399.2 1852.16   6
   7   1  -6 22867.8 1452.54   2
   7   1  -6 23182.1 1749.46   6
   7   1  -5 8235.50 820.860   2
   7   1  -5 10721.3 1151.00   6
   7   1  -4 48261.3 1969.79   2
   7   1  -4 50433.3 2470.91   6
   7   1  -3-50.3350 143.584   2
   7   1  -3 688.659 351.204   6
   7   1  -2 57260.7 2495.37   6
   7   1  -2 55190.7 1925.53   2
   7   1  -1 5911.32 761.033   6
   7   1  -1 5555.14 542.525   2
   7   1   0 29565.4 1692.60   6
   7   1   0 29276.3 1216.39   2
   7   1   1 5346.61 723.381   6
   7   1   1 4454.48 427.641   2
   7   1   2 3193.41 571.439   6
   7   1   2 2499.26 304.117   2
   7   1   3 47148.6 2181.16   6
   7   1   4 8316.13 907.636   6
   7   1   5 150427. 4388.47   6
   7   1   6 18092.9 1409.42   6
   7   1   7 55105.3 2592.35   6
   7   1   8 75853.8 3284.25   4
   7   1   9 1415.57 498.624   4
   7   1  10 42891.4 2576.13   4
   7   1  11 2628.38 659.000   4
   7   1  12 18116.2 1768.14   4
   7   1  13 18652.4 1855.21   4
   7   1  14 15433.8 1733.06   4
   7   1  15 29880.8 2498.34   4
   7   1  16 708.609 566.067   4
   7   1  17 29178.0 2646.62   4
   7   1  18 203.587 383.713   4
   7   1  19 16069.1 2084.32   4
   7   1  20 12452.6 1887.13   4
   7   2 -16 1746.85 701.371   6
   7   2 -15 17124.4 1999.88   6
   7   2 -14-315.375 406.564   6
   7   2 -13 24710.5 2249.00   6
   7   2 -12 973.897 540.942   6
   7   2 -11 44334.7 2805.42   6
   7   2 -10 12619.3 1425.57   6
   7   2  -9 24818.8 1814.74   2
   7   2  -9 27745.2 2068.95   6
   7   2  -8 30884.9 1934.53   2
   7   2  -8 27555.6 1981.64   6
   7   2  -7 1130.65 430.131   6
   7   2  -7 687.245 289.792   2
   7   2  -6 36575.8 1965.92   2
   7   2  -6 37994.6 2167.69   6
   7   2  -5 1048.20 335.169   2
   7   2  -5 1159.15 400.005   6
   7   2  -4 46480.0 2073.25   2
   7   2  -4 47524.8 2257.34   6
   7   2  -3 13666.2 1042.14   2
   7   2  -3 13111.2 1111.09   6
   7   2  -2 28272.3 1606.10   6
   7   2  -2 32073.0 1568.10   2
   7   2  -1 36822.7 1800.56   6
   7   2  -1 37138.1 1650.81   2
   7   2   0 774.853 242.057   2
   7   2   0 1030.14 317.183   6
   7   2   1 86407.4 2853.75   6
   7   2   1 81751.6 2503.33   2
   7   2   2 1226.02 341.460   6
   7   2   2 703.164 237.423   2
   7   2   3 52243.8 2124.28   6
   7   2   3 48347.1 1755.23   2
   7   2   4 35791.0 1760.05   6
   7   2   4 33631.6 1424.83   2
   7   2   5 14326.2 1131.66   6
   7   2   6 67856.9 2691.42   6
   7   2   7 1476.30 479.605   4
   7   2   8 55051.7 2651.22   4
   7   2   9 32785.9 2091.09   4
   7   2  10 9368.95 1156.60   4
   7   2  11 18859.4 1697.52   4
   7   2  12 11833.2 1389.02   4
   7   2  13 50677.5 2993.17   4
   7   2  14 34.3436 353.835   4
   7   2  15 35842.2 2671.87   4
   7   2  16 19169.1 2017.51   4
   7   2  17 11025.2 1593.41   4
   7   2  18 17054.8 2018.83   4
   7   2  19 1344.10 601.393   4
   7   2  20 14882.4 2012.23   4
   7   2  21 328.786 476.854   4
   7   3 -16 925.185 495.826   2
   7   3 -15 21324.9 2104.85   2
   7   3 -15 18385.5 2041.54   6
   7   3 -14 4316.56 882.303   6
   7   3 -14 3714.46 854.151   2
   7   3 -13 12294.8 1522.27   2
   7   3 -13 10743.8 1427.37   6
   7   3 -12 8605.36 1244.09   6
   7   3 -12 8830.81 1242.13   2
   7   3 -11 3530.55 763.608   6
   7   3 -11 4366.33 857.147   2
   7   3 -10 26240.5 2007.97   2
   7   3 -10 25899.3 1996.64   6
   7   3  -9 246.018 250.629   6
   7   3  -9 400.396 392.990   2
   7   3  -8 57425.3 2821.76   2
   7   3  -8 55312.0 2739.84   6
   7   3  -7 21889.1 1636.74   2
   7   3  -7 22901.0 1646.97   6
   7   3  -6 34043.8 2001.00   2
   7   3  -6 37422.1 2050.63   6
   7   3  -5 16825.0 1346.37   2
   7   3  -5 17845.3 1335.07   6
   7   3  -4 8073.08 900.767   2
   7   3  -4 8259.88 866.232   6
   7   3  -3 37264.4 1912.66   2
   7   3  -3 37282.6 1798.10   6
   7   3  -2 3465.52 573.159   2
   7   3  -2 3410.59 509.908   6
   7   3  -1 52789.3 2012.85   6
   7   3  -1 50142.1 2160.92   2
   7   3   0 53094.0 1995.34   6
   7   3   0 51654.0 2174.56   2
   7   3   1 31853.6 1468.78   6
   7   3   1 31755.3 1645.05   2
   7   3   2 115910. 3123.48   6
   7   3   2 112938. 3357.45   2
   7   3   3 3296.60 454.303   6
   7   3   3 2636.70 463.318   2
   7   3   4 56692.3 2110.30   6
   7   3   4 56234.2 2175.07   2
   7   3   5-49.0604 217.352   2
   7   3   6 4992.01 690.689   4
   7   3   7 1949.42 470.176   4
   7   3   8 20380.1 1512.14   4
   7   3   9 66649.6 2958.73   4
   7   3  10 71.6060 348.786   4
   7   3  11 47476.4 2636.71   4
   7   3  12 5931.31 971.981   4
   7   3  13 23294.8 1988.23   4
   7   3  14 21866.2 1966.73   4
   7   3  15 5365.96 1028.47   4
   7   3  16 23890.2 2199.57   4
   7   3  17 2012.92 724.237   4
   7   3  18 21180.5 2216.45   4
   7   3  19 6583.73 1261.85   4
   7   3  20 11305.0 1741.34   4
   7   3  21 6526.65 1359.04   4
   7   4 -15 6179.10 1214.45   2
   7   4 -14 15873.9 1831.59   2
   7   4 -13 1805.74 629.042   2
   7   4 -12 23208.2 2111.26   2
   7   4 -11 2634.72 736.741   2
   7   4 -10 10459.2 1221.90   6
   7   4 -10 10335.6 1302.83   2
   7   4  -9 11580.7 1328.34   2
   7   4  -9 9643.21 1125.07   6
   7   4  -8 7854.56 1076.08   2
   7   4  -8 10444.5 1100.37   6
   7   4  -7 37921.9 2302.83   2
   7   4  -7 38562.1 2068.26   6
   7   4  -6 3669.99 706.223   2
   7   4  -6 4841.72 698.707   6
   7   4  -5 45717.6 2421.60   2
   7   4  -5 48368.7 2131.28   6
   7   4  -4 27816.3 1801.35   2
   7   4  -4 25305.6 1420.63   6
   7   4  -3 43165.7 1798.57   6
   7   4  -3 46281.0 2304.45   2
   7   4  -2 88276.1 2615.28   6
   7   4  -2 93880.7 3370.44   2
   7   4  -1 28948.9 1278.41   6
   7   4  -1 24330.0 1601.95   2
   7   4   0 91770.9 2451.62   6
   7   4   0 88723.0 3224.79   2
   7   4   1 175.791 129.423   6
   7   4   1-188.247 254.896   2
   7   4   2 43873.1 1508.36   6
   7   4   2 44005.3 2133.18   2
   7   4   3 930.339 357.087   2
   7   4   4 17741.6 1304.84   2
   7   4   4 20685.7 1194.16   4
   7   4   5 3337.53 578.326   2
   7   4   5 3393.22 505.061   4
   7   4   6-111.048 287.683   2
   7   4   6 194.222 223.568   4
   7   4   7 23654.3 1485.65   4
   7   4   8 2643.08 538.316   4
   7   4   9 35249.6 1992.74   4
   7   4  10 23945.2 1707.84   4
   7   4  11 10000.1 1152.13   4
   7   4  12 53084.6 2814.96   4
   7   4  13 3544.49 762.067   4
   7   4  14 21243.6 1898.91   4
   7   4  15 2812.30 773.655   4
   7   4  15 2531.73 639.824   1
   7   4  16 19565.6 1944.76   4
   7   4  17 13067.0 1640.39   4
   7   4  18 5252.08 1112.90   4
   7   4  19 29420.2 2656.37   4
   7   4  20 2227.23 807.960   4
   7   4  21 10805.7 1729.83   4
   7   5 -15 1151.85 597.682   2
   7   5 -14 8567.82 1419.60   2
   7   5 -13 7856.66 1333.26   2
   7   5 -12 5253.67 1033.46   2
   7   5 -11 13496.7 1615.45   2
   7   5 -10 912.604 466.727   2
   7   5  -9 13932.5 1550.61   2
   7   5  -8 22597.3 1924.59   2
   7   5  -7 42020.3 2566.41   2
   7   5  -6 54731.6 2893.79   2
   7   5  -5 46776.1 2590.80   2
   7   5  -4 70782.1 3176.05   2
   7   5  -3 21919.8 1677.27   2
   7   5  -2 41341.6 2301.23   2
   7   5  -1 525.967 337.128   2
   7   5   0 23159.8 1677.44   2
   7   5   1 7480.27 949.275   2
   7   5   2-41.3709 128.455   4
   7   5   2 46.5849 283.698   2
   7   5   3 63202.6 2805.00   2
   7   5   3 65786.9 1895.35   4
   7   5   4 2218.74 337.207   4
   7   5   4 1931.72 520.229   2
   7   5   5 28177.6 1789.81   2
   7   5   5 26460.3 1265.70   4
   7   5   6 4013.62 689.341   2
   7   5   6 4320.80 546.441   4
   7   5   7 4025.80 709.203   2
   7   5   7 4280.85 596.314   4
   7   5   8 32660.0 1732.47   4
   7   5   9 2451.89 498.798   4
   7   5  10 34816.3 1989.08   4
   7   5  11 163.865 291.997   4
   7   5  12 58870.9 2888.68   4
   7   5  13 9573.32 1195.50   4
   7   5  14 15349.6 1584.80   4
   7   5  15 16366.4 1600.51   5
   7   5  15 19085.2 1809.21   4
   7   5  16 4858.09 957.354   4
   7   5  16 3844.46 768.652   1
   7   5  17 23221.7 2181.77   4
   7   5  18 2615.57 861.455   4
   7   5  19 25276.5 2425.27   4
   7   5  20 8237.75 1469.98   4
   7   5  21 4466.47 1094.04   4
   7   6 -14 265.388 357.452   2
   7   6 -13 21209.8 2250.97   2
   7   6 -12 636.205 493.674   2
   7   6 -11 10306.7 1481.62   2
   7   6 -10 9227.04 1365.53   2
   7   6  -9 9323.53 1312.57   2
   7   6  -8 40960.9 2726.62   2
   7   6  -7 8512.55 1210.63   2
   7   6  -6 43209.9 2696.40   2
   7   6  -5-99.6255 359.008   2
   7   6  -4 33594.1 2267.56   2
   7   6  -3 6814.41 1022.75   2
   7   6  -2 5406.62 897.976   2
   7   6  -1 34063.1 2222.40   2
   7   6   0 8001.71 1075.84   2
   7   6   1 48470.7 2654.73   2
   7   6   2 3633.24 740.095   2
   7   6   3 29085.4 1996.64   2
   7   6   4 14210.2 1395.46   2
   7   6   5 4290.30 770.142   2
   7   6   6 27523.3 1915.41   2
   7   6   7 472.059 299.658   2
   7   6   8 71021.2 2483.59   4
   7   6   8 67460.4 3145.67   2
   7   6   9 4665.15 640.000   4
   7   6  10 26692.7 1647.31   4
   7   6  11 10839.8 1104.70   4
   7   6  12 8783.82 1043.57   4
   7   6  13 33046.5 2165.99   4
   7   6  14-129.153 247.054   4
   7   6  14 232.433 303.026   5
   7   6  15 12148.3 1458.04   5
   7   6  15 17039.9 1684.33   4
   7   6  16 4127.95 894.377   4
   7   6  16 4879.37 951.858   5
   7   6  16 3808.95 806.236   1
   7   6  17 9972.77 1412.73   4
   7   6  17 8076.34 1188.44   1
   7   6  18 19992.2 2055.92   4
   7   6  19 2095.69 704.059   4
   7   6  20 24362.1 2448.05   4
   7   6  21-5.19708 343.907   4
   7   7 -13 4593.65 1088.10   2
   7   7 -12 16833.8 2038.39   2
   7   7 -11 3182.08 925.035   2
   7   7 -10 15746.6 1872.01   2
   7   7  -9-1039.07 543.502   2
   7   7  -8 23682.3 2176.01   2
   7   7  -7 9882.47 1412.98   2
   7   7  -6 14059.6 1592.16   2
   7   7  -5 13740.2 1563.37   2
   7   7  -4 3733.20 849.790   2
   7   7  -3 40124.2 2614.61   2
   7   7  -2-246.666 452.783   2
   7   7  -1 32397.9 2309.29   2
   7   7   0 1412.99 547.110   2
   7   7   1 20346.0 1811.52   2
   7   7   2 28333.9 2118.42   2
   7   7   3 1120.70 534.156   2
   7   7   4 83142.7 3699.31   2
   7   7   5 158.917 329.630   2
   7   7   6 41325.9 2529.71   2
   7   7   7 7561.54 1099.69   2
   7   7   8 15514.3 1547.51   2
   7   7  12 1805.85 642.537   5
   7   7  13 5431.37 996.148   5
   7   7  14 18420.9 1859.09   5
   7   7  15 3166.65 840.259   5
   7   7  16 21628.7 2011.42   1
   7   7  16 23310.4 2087.43   5
   7   7  17 7.53474 365.000   1
   7   7  18 23692.3 2138.41   1
   7   8 -12 16727.7 2087.59   2
   7   8 -11 1701.26 650.338   2
   7   8 -10 7777.33 1372.76   2
   7   8  -9 11237.8 1650.56   2
   7   8  -8 5424.50 1138.40   2
   7   8  -7 19890.7 2064.22   2
   7   8  -6 190.759 503.351   2
   7   8  -5 26315.6 2294.28   2
   7   8  -4 1043.26 506.386   2
   7   8  -3 17204.1 1800.88   2
   7   8  -2 21645.8 2029.43   2
   7   8  -1 5630.01 1058.86   2
   7   8   0 37954.3 2655.23   2
   7   8   1 2513.41 721.462   2
   7   8   2 68836.1 3574.13   2
   7   8   3 469.800 428.439   2
   7   8   4 28321.2 2236.23   2
   7   8   5 25670.8 2117.64   2
   7   8   6 398.583 347.277   2
   7   8   7 30247.2 2298.54   2
   7   8   8 1101.29 565.049   2
   7   8   9 17654.2 1853.56   5
   7   8   9 18977.8 1841.00   2
   7   8  10 5906.95 1079.58   5
   7   8  11 6931.97 1161.65   5
   7   8  12 24893.4 2234.64   5
   7   8  13 229.455 441.283   5
   7   8  14 20032.2 2022.23   5
   7   8  15 927.999 522.881   5
   7   8  16 15670.4 1791.37   1
   7   8  16 12455.1 1580.33   5
   7   8  17 6991.66 1241.23   1
   7   8  18 8949.26 1408.93   1
   7   8  19 4967.74 1053.65   1
   7   9 -10 170.185 479.902   2
   7   9  -9 24623.1 2502.56   2
   7   9  -8 1506.69 715.536   2
   7   9  -7 17117.3 2061.00   2
   7   9  -7 18655.3 1862.12   5
   7   9  -6 6609.15 1260.11   2
   7   9  -6 7704.26 1218.18   5
   7   9  -5 9297.03 1493.85   2
   7   9  -5 10391.9 1426.54   5
   7   9  -4 12047.5 1653.30   2
   7   9  -4 11769.9 1491.65   5
   7   9  -3-324.214 431.459   2
   7   9  -2 29933.1 2514.37   2
   7   9  -1 1856.60 770.416   2
   7   9   0 27747.0 2399.46   2
   7   9   1 14056.8 1707.63   2
   7   9   2 13336.0 1642.58   2
   7   9   3 21114.0 2071.63   2
   7   9   4 202.767 401.149   2
   7   9   5 27817.7 2387.56   5
   7   9   5 33202.3 2546.98   2
   7   9   6 5981.03 1121.70   5
   7   9   6 5662.24 1046.73   2
   7   9   7 15215.0 1770.58   5
   7   9   7 12683.3 1561.72   2
   7   9   8 29355.1 2472.00   5
   7   9   8 27774.3 2320.47   2
   7   9   9 4345.19 943.749   2
   7   9   9 4761.47 994.618   5
   7   9  10 13416.9 1689.24   5
   7   9  11 655.075 500.566   5
   7   9  12 18282.3 1993.57   5
   7   9  13 3384.89 883.279   5
   7   9  14 4849.81 1005.53   5
   7   9  15 13889.4 1751.48   5
   7   9  16 1074.99 564.630   1
   7   9  16-219.960 352.583   5
   7   9  17 14873.9 1824.34   1
   7   9  18 690.587 505.639   1
   7  10  -8 14577.0 2022.12   2
   7  10  -7 3630.80 1065.67   2
   7  10  -6 12958.8 1799.59   2
   7  10  -6 8542.97 1305.08   5
   7  10  -5-140.967 378.021   2
   7  10  -5 831.160 455.823   5
   7  10  -4 20877.4 2277.03   2
   7  10  -4 22884.4 2198.30   5
   7  10  -3 9327.85 1519.96   2
   7  10  -3 6566.03 1215.82   5
   7  10  -2 8238.81 1434.60   2
   7  10  -2 6312.23 1164.40   5
   7  10  -1 27878.0 2552.35   2
   7  10  -1 19747.1 2051.36   5
   7  10   0 1699.40 821.082   2
   7  10   0 106.958 345.050   5
   7  10   1 29801.4 2535.76   5
   7  10   1 32858.3 2730.40   2
   7  10   2 1000.34 676.890   2
   7  10   2-46.9484 483.482   5
   7  10   3 17914.7 1976.36   5
   7  10   3 16703.0 1941.87   2
   7  10   4 3062.46 794.735   5
   7  10   4 2967.96 915.138   2
   7  10   5 6250.21 1193.79   5
   7  10   5 7955.84 1321.28   2
   7  10   6 19003.5 2063.00   5
   7  10   6 16541.3 1891.01   2
   7  10   7 306.444 376.752   2
   7  10   7 1469.60 652.314   5
   7  10   8 20989.5 2164.52   5
   7  10   8 19926.0 2075.32   2
   7  10   9 1211.50 636.383   2
   7  10   9 988.656 610.107   5
   7  10  10 6376.84 1246.46   5
   7  10  11 7488.16 1326.86   5
   7  10  12 9005.35 1477.47   5
   7  10  13 20681.3 2201.91   5
   7  10  14-853.539 545.403   5
   7  10  15 6886.09 1328.74   5
   7  10  16 9359.67 1525.04   1
   7  10  16 11675.3 1636.52   5
   7  10  17 13643.9 1779.57   5
   7  11  -6 12738.4 1897.14   2
   7  11  -5 6950.60 1397.93   2
   7  11  -5 5787.52 1153.97   5
   7  11  -4 4028.57 1084.51   2
   7  11  -4 3330.98 838.348   5
   7  11  -3 21493.2 2433.69   2
   7  11  -3 26100.9 2440.31   5
   7  11  -2-166.434 444.753   2
   7  11  -2-317.365 486.350   5
   7  11  -1 10189.6 1659.54   2
   7  11  -1 10494.9 1550.35   5
   7  11   0 12677.9 1722.88   5
   7  11   0 11535.5 1729.89   2
   7  11   1 9264.59 1579.90   2
   7  11   1 8109.82 1388.84   5
   7  11   2 13148.5 1771.16   5
   7  11   2 11175.5 1687.01   2
   7  11   3 908.349 491.158   5
   7  11   3 1090.73 644.502   2
   7  11   4 13885.5 1819.36   5
   7  11   4 10829.0 1640.95   2
   7  11   5 227.348 517.601   5
   7  11   5-99.6824 440.740   2
   7  11   6 6836.15 1270.48   5
   7  11   6 11534.0 1677.76   2
   7  11   7 6048.38 1252.56   2
   7  11   7 5961.32 1264.81   5
   7  11   8 15404.3 1964.17   5
   7  11   8 14162.0 1870.10   2
   7  11   9 16748.4 2023.87   5
   7  11   9 19634.9 2180.81   2
   7  11  10 6781.30 1308.03   5
   7  11  11 14533.6 1922.90   5
   7  11  12 1613.92 704.640   5
   7  11  13 13926.5 1896.82   5
   7  11  14 4404.51 1059.17   5
   7  11  15 4753.71 1124.59   5
   7  12  -5 4280.81 1017.03   5
   7  12  -4 4894.98 1122.24   5
   7  12  -3 13376.6 2010.55   2
   7  12  -3 11060.1 1641.96   5
   7  12  -2 6233.16 1414.30   2
   7  12  -2 6982.90 1315.26   5
   7  12  -1 1689.07 912.140   2
   7  12  -1 1705.69 769.015   5
   7  12   0 13951.5 1870.12   5
   7  12   0 14962.9 2070.60   2
   7  12   1-60.0011 473.074   5
   7  12   1 630.256 591.310   2
   7  12   2 8131.60 1458.39   5
   7  12   2 9205.45 1626.58   2
   7  12   3 3815.98 995.005   5
   7  12   3 3215.32 939.279   2
   7  12   4 9076.25 1529.61   5
   7  12   4 9444.35 1616.37   2
   7  12   5 5809.66 1282.87   5
   7  12   5 3627.65 990.948   2
   7  12   6 12771.2 1841.88   5
   7  12   6 8548.76 1508.80   2
   7  12   7 21161.5 2353.41   5
   7  12   7 21387.4 2351.30   2
   7  12   8 140.810 494.025   2
   7  12   8 1800.83 757.070   5
   7  12   9 13493.0 1884.04   2
   7  12   9 10957.7 1730.05   5
   7  12  10 4132.34 1080.01   5
   8  -9  -1 2541.90 1084.25   6
   8  -9   0 2934.92 1025.00   6
   8  -9   1 7315.77 1526.46   6
   8  -9   2 69.5069 537.772   6
   8  -9   3 15060.6 2106.04   6
   8  -9   4 10360.2 1766.72   6
   8  -9   5 7099.22 1480.66   6
   8  -9   6 29819.6 3010.68   6
   8  -8  -5 3312.29 1087.51   6
   8  -8  -4 7063.42 1493.69   6
   8  -8  -3 13638.6 1988.88   6
   8  -8  -2 798.257 764.388   6
   8  -8  -1 23876.5 2616.75   6
   8  -8   0 2190.32 863.717   6
   8  -8   1 14156.2 2020.02   6
   8  -8   2 16855.2 2160.74   6
   8  -8   3 3193.14 1053.04   6
   8  -8   4 19637.0 2309.17   6
   8  -8   5 1.83383 537.650   6
   8  -8   6 23783.8 2575.60   6
   8  -8   7 265.736 504.743   6
   8  -8   8 3813.74 1070.91   6
   8  -8   9 10888.1 1837.37   6
   8  -8  10 830.207 650.227   6
   8  -7  -8 12701.7 1967.03   6
   8  -7  -7 11442.4 1851.78   6
   8  -7  -6 2012.00 846.632   6
   8  -7  -5 26072.1 2669.11   6
   8  -7  -4 2117.42 908.318   6
   8  -7  -3 34314.9 3010.63   6
   8  -7  -2 9402.79 1556.93   6
   8  -7  -1 8038.10 1519.70   6
   8  -7   0 20508.6 2283.81   6
   8  -7   1-271.405 469.711   6
   8  -7   2 15915.5 2002.42   6
   8  -7   3-269.815 507.576   6
   8  -7   4 5480.67 1220.06   6
   8  -7   5 6181.51 1300.08   6
   8  -7   6 11505.4 1719.76   6
   8  -7   7 17130.3 2151.79   6
   8  -7   8 3143.61 1107.06   6
   8  -7   9 10791.7 1731.44   6
   8  -7  10 4043.16 1101.81   6
   8  -7  11 8383.64 1571.11   4
   8  -7  11 5523.23 1306.65   6
   8  -7  12 8809.11 1700.70   4
   8  -6  -9 26138.6 2743.60   6
   8  -6  -8 86.4311 432.331   6
   8  -6  -7 25377.6 2585.49   6
   8  -6  -6 4756.53 1165.12   6
   8  -6  -5 16899.9 2057.30   6
   8  -6  -4 14714.2 1889.54   6
   8  -6  -3 1199.11 533.152   6
   8  -6  -2 27310.0 2551.36   6
   8  -6  -1 750.322 553.087   6
   8  -6   0 11912.4 1680.26   6
   8  -6   1 1458.07 690.703   6
   8  -6   2 10439.7 1562.42   6
   8  -6   3 10659.6 1575.07   6
   8  -6   4 435.222 522.648   6
   8  -6   5 21983.9 2264.78   6
   8  -6   6-78.0808 421.065   6
   8  -6   7 21284.7 2241.06   6
   8  -6   8 4565.33 1109.66   6
   8  -6   9 2823.00 799.451   6
   8  -6  10 26703.1 2671.28   6
   8  -6  11 1714.24 711.208   4
   8  -6  11-248.975 557.900   6
   8  -6  12 27053.4 2798.72   4
   8  -6  13 3451.99 1117.27   4
   8  -6  14 30700.6 3068.52   4
   8  -5 -11 18893.5 2360.86   6
   8  -5 -10 2272.43 845.382   6
   8  -5  -9 27959.0 2756.03   6
   8  -5  -8 3588.40 1024.07   6
   8  -5  -7 9604.44 1542.51   6
   8  -5  -6 9987.18 1546.12   6
   8  -5  -5 1006.62 714.448   6
   8  -5  -4 21128.3 2184.75   6
   8  -5  -3 3071.55 834.997   6
   8  -5  -2 24128.3 2294.13   6
   8  -5  -1 11672.9 1632.40   6
   8  -5   0 3486.80 887.538   6
   8  -5   1 23673.9 2266.86   6
   8  -5   2 522.319 410.301   6
   8  -5   3 26574.1 2366.74   6
   8  -5   4 6553.78 1172.73   6
   8  -5   5 16172.7 1864.11   6
   8  -5   6 15159.6 1839.25   6
   8  -5   7 2625.40 854.020   6
   8  -5   8 31013.6 2674.50   6
   8  -5   9 697.344 580.573   6
   8  -5  10 26678.6 2582.08   6
   8  -5  11 6177.43 1282.88   4
   8  -5  11 6183.74 1254.01   6
   8  -5  12 20600.3 2337.49   4
   8  -5  13 5556.93 1286.59   4
   8  -5  14 3908.20 1131.91   4
   8  -5  15 17902.3 2362.29   4
   8  -5  16-114.959 424.842   4
   8  -4 -12 8508.77 1596.88   6
   8  -4 -11 16564.8 2142.20   6
   8  -4 -10 13516.9 1932.79   6
   8  -4  -9 1377.59 689.860   6
   8  -4  -8 21236.0 2242.96   6
   8  -4  -7 1288.40 701.660   6
   8  -4  -6 20488.2 2131.80   6
   8  -4  -5 6949.03 1248.04   6
   8  -4  -4 10055.8 1458.45   6
   8  -4  -3 17318.6 1877.28   6
   8  -4  -2 3156.50 838.242   6
   8  -4  -1 57862.0 3397.10   6
   8  -4   0 3875.52 899.849   6
   8  -4   1 39826.1 2807.22   6
   8  -4   2 11774.5 1530.31   6
   8  -4   3 16262.7 1766.65   6
   8  -4   4 27031.1 2284.58   6
   8  -4   5 1112.50 552.502   6
   8  -4   6 33880.6 2586.94   6
   8  -4   7 5886.18 1074.55   6
   8  -4   8 10357.9 1513.14   6
   8  -4   9 17190.7 1927.61   6
   8  -4  10 4998.96 1077.58   6
   8  -4  11 21550.1 2252.39   4
   8  -4  11 21696.5 2263.67   6
   8  -4  12-121.306 383.493   4
   8  -4  13 30040.8 2820.71   4
   8  -4  14 6398.12 1326.79   4
   8  -4  15 20127.1 2433.85   4
   8  -4  16 10579.1 1802.64   4
   8  -4  17 2886.33 1089.90   4
   8  -3 -13 3708.64 1071.77   6
   8  -3 -12 16239.6 2089.03   6
   8  -3 -11-807.225 554.688   6
   8  -3 -10 26631.0 2552.31   6
   8  -3  -9 2475.10 849.857   6
   8  -3  -8 11609.5 1628.88   6
   8  -3  -7 13130.5 1674.36   6
   8  -3  -6 3696.23 909.467   6
   8  -3  -5 25714.4 2260.79   6
   8  -3  -4 449.783 479.406   6
   8  -3  -3 40972.8 2765.37   6
   8  -3  -2 2004.36 697.625   6
   8  -3  -1 43003.2 2792.62   6
   8  -3   0 25011.8 2109.84   6
   8  -3   1 5240.69 992.494   6
   8  -3   2 72387.0 3676.96   6
   8  -3   3 9381.60 1281.30   6
   8  -3   4 29459.8 2287.33   6
   8  -3   5 8805.42 1266.98   6
   8  -3   6 12390.2 1497.44   6
   8  -3   7 24614.9 2131.10   6
   8  -3   8 304.286 362.728   6
   8  -3   9 38239.3 2794.68   6
   8  -3  10 4539.13 1003.06   6
   8  -3  11 28373.2 2516.09   4
   8  -3  12 12944.7 1749.61   4
   8  -3  13 5574.34 1222.88   4
   8  -3  14 25938.1 2608.70   4
   8  -3  15 594.222 500.274   4
   8  -3  16 20437.2 2429.13   4
   8  -3  17 4381.24 1189.39   4
   8  -3  18 14067.1 2123.38   4
   8  -2 -14 35482.8 3184.84   6
   8  -2 -13 2028.01 841.797   6
   8  -2 -12 11125.6 1707.13   6
   8  -2 -11 5506.83 1192.88   6
   8  -2 -10 11506.0 1645.74   6
   8  -2  -9 8644.43 1393.21   6
   8  -2  -8 478.825 463.236   6
   8  -2  -7 27685.8 2372.21   6
   8  -2  -6 5751.30 1040.10   6
   8  -2  -5 42069.3 2800.95   6
   8  -2  -4 14467.6 1588.24   6
   8  -2  -3 10067.1 1296.42   6
   8  -2  -2 43377.5 2713.50   6
   8  -2  -1 233.977 302.624   6
   8  -2   0 56491.7 3069.08   6
   8  -2   1 3007.62 753.607   6
   8  -2   2 21018.2 1843.31   6
   8  -2   3 82613.9 3750.53   6
   8  -2   4 1541.73 516.012   6
   8  -2   5 40549.9 2580.66   6
   8  -2   6 183.396 342.548   6
   8  -2   7 39074.9 2596.95   6
   8  -2   8 3352.71 823.425   6
   8  -2   9 5722.62 1026.83   6
   8  -2  10 57888.4 3437.27   4
   8  -2  10 57505.4 3401.18   6
   8  -2  11 2505.26 743.066   4
   8  -2  12 34987.8 2791.07   4
   8  -2  13 1920.21 694.857   4
   8  -2  14 23834.5 2438.70   4
   8  -2  15 2842.89 906.893   4
   8  -2  16 7673.77 1468.79   4
   8  -2  17 4514.77 1176.80   4
   8  -2  18 621.926 435.286   4
   8  -1 -14 12330.0 1843.01   6
   8  -1 -13 21361.6 2349.54   6
   8  -1 -12 3059.99 964.499   6
   8  -1 -11 19309.9 2108.72   6
   8  -1 -10 161.453 322.734   6
   8  -1  -9 31663.8 2555.15   6
   8  -1  -8 3431.55 802.811   6
   8  -1  -7 5308.93 1057.32   6
   8  -1  -6 55530.7 3162.45   6
   8  -1  -5 1592.90 608.332   6
   8  -1  -4 64334.8 3299.24   6
   8  -1  -3 1734.29 525.493   6
   8  -1  -2 19226.5 1691.25   6
   8  -1  -1 18323.2 1619.82   6
   8  -1   0 1448.75 509.687   6
   8  -1   1 21575.6 1765.15   6
   8  -1   2 2484.42 686.157   6
   8  -1   3 113652. 4270.75   6
   8  -1   4 5838.55 924.834   6
   8  -1   5 42735.4 2516.47   6
   8  -1   6 34202.8 2276.15   6
   8  -1   7 5227.43 919.719   6
   8  -1   8 37082.4 2476.85   6
   8  -1   9 680.459 389.993   6
   8  -1  10 37000.2 2646.82   4
   8  -1  11 3666.22 886.286   4
   8  -1  12 15970.4 1832.97   4
   8  -1  13 19831.5 2097.60   4
   8  -1  14 1416.03 701.434   4
   8  -1  15 29011.8 2669.74   4
   8  -1  16 251.177 466.792   4
   8  -1  17 10132.7 1654.13   4
   8  -1  18 1612.17 777.762   4
   8  -1  19 12218.7 1968.74   4
   8   0 -15 12423.2 1859.22   6
   8   0 -14 1157.83 575.348   6
   8   0 -13 26389.6 2543.46   6
   8   0 -12 2836.58 860.055   6
   8   0 -11 22052.3 2181.61   6
   8   0 -10 19301.8 1988.93   6
   8   0  -9 6637.73 1156.98   6
   8   0  -8 21241.7 1961.38   6
   8   0  -7 1040.91 434.207   6
   8   0  -6 24430.5 1996.31   6
   8   0  -5 16707.6 1591.78   6
   8   0  -4 8243.56 1101.94   6
   8   0  -3 43754.3 2501.79   6
   8   0  -2 131.576 260.685   6
   8   0  -1 82905.2 3429.13   6
   8   0   0 71.2795 262.742   6
   8   0   1 39972.4 2298.40   6
   8   0   2 4441.16 801.673   6
   8   0   3 12308.0 1237.95   6
   8   0   4 60996.1 2882.86   6
   8   0   5 7732.17 1024.08   6
   8   0   6 70817.0 3192.25   6
   8   0   7 112.922 236.792   6
   8   0   8 19603.2 1709.76   6
   8   0   9 10019.9 1291.83   4
   8   0  10 14549.1 1594.77   4
   8   0  11 44334.8 2900.20   4
   8   0  12 2220.23 724.067   4
   8   0  13 36445.2 2793.14   4
   8   0  14 2860.20 829.890   4
   8   0  15 17930.1 2059.13   4
   8   0  16 7665.39 1413.64   4
   8   0  17 5482.82 1159.33   4
   8   0  18 16376.6 2123.14   4
   8   0  19 975.487 629.567   4
   8   1 -15 11382.1 1698.39   6
   8   1 -14 3850.23 1009.65   6
   8   1 -13 6711.38 1221.27   6
   8   1 -12 14292.7 1759.81   6
   8   1 -11 1737.63 724.533   6
   8   1 -10 24565.4 2155.79   6
   8   1  -9 4181.61 851.840   6
   8   1  -8 7640.66 941.492   2
   8   1  -8 7464.89 1139.48   6
   8   1  -7 23436.5 1583.98   2
   8   1  -7 21377.7 1840.21   6
   8   1  -6 181.260 161.799   2
   8   1  -6 681.636 437.291   6
   8   1  -5 72229.4 2678.99   2
   8   1  -5 75831.9 3357.64   6
   8   1  -4 153.682 169.393   2
   8   1  -4 189.078 289.725   6
   8   1  -3 68555.2 3023.16   6
   8   1  -3 66730.5 2322.72   2
   8   1  -2 6811.91 913.723   6
   8   1  -2 7113.04 657.729   2
   8   1  -1 19964.4 1515.23   6
   8   1  -1 19825.6 1055.63   2
   8   1   0 34457.0 2009.86   6
   8   1   0 31632.4 1270.82   2
   8   1   1 402.277 313.225   6
   8   1   1 297.874 129.636   2
   8   1   2 52822.5 2476.12   6
   8   1   2 46303.5 1324.02   2
   8   1   3 770.207 375.603   6
   8   1   4 26098.3 1726.60   6
   8   1   5 222.074 279.451   6
   8   1   6 61016.9 2814.02   6
   8   1   7 51403.0 2638.74   6
   8   1   8 3697.35 725.491   6
   8   1   8 3707.17 769.144   4
   8   1   9 60752.8 3123.29   4
   8   1  10 150.221 381.664   4
   8   1  11 27690.3 2208.14   4
   8   1  12 11566.0 1464.06   4
   8   1  13 21660.6 2078.39   4
   8   1  14 22843.3 2190.87   4
   8   1  15 358.139 326.875   4
   8   1  16 22191.6 2259.26   4
   8   1  17 1384.96 643.073   4
   8   1  18 15579.3 2017.67   4
   8   1  19 11312.9 1788.27   4
   8   1  20 3577.29 1046.83   4
   8   2 -14 14162.4 1782.38   6
   8   2 -13-316.929 391.619   6
   8   2 -12 5821.64 1081.40   6
   8   2 -12 7747.39 1144.47   2
   8   2 -11 6939.98 1156.35   6
   8   2 -11 8238.66 1139.54   2
   8   2 -10 8596.40 1146.19   2
   8   2 -10 8702.96 1243.58   6
   8   2  -9 34058.5 2189.38   2
   8   2  -9 34957.5 2439.71   6
   8   2  -8 43.0382 198.454   2
   8   2  -8-271.797 343.481   6
   8   2  -7 50204.3 2506.39   2
   8   2  -7 54822.5 2869.91   6
   8   2  -6 1288.83 383.241   2
   8   2  -6 658.876 390.987   6
   8   2  -5 32840.0 1839.17   2
   8   2  -5 30816.5 1990.38   6
   8   2  -4 17176.5 1259.67   2
   8   2  -4 15281.1 1353.52   6
   8   2  -3 3471.92 542.189   2
   8   2  -3 5171.12 760.799   6
   8   2  -2 40700.1 2120.43   6
   8   2  -2 44150.8 1929.90   2
   8   2  -1 240.411 186.801   2
   8   2  -1-47.1904 261.317   6
   8   2   0 42711.8 2102.71   6
   8   2   0 41211.7 1756.10   2
   8   2   1-117.272 220.286   6
   8   2   1 431.505 240.335   2
   8   2   2 59686.3 2481.62   6
   8   2   2 56572.4 1970.74   2
   8   2   3 18857.3 1340.36   6
   8   2   3 17567.9 1004.09   2
   8   2   4 20726.4 1430.31   6
   8   2   5 36174.0 1959.87   6
   8   2   6-66.1170 222.063   6
   8   2   7 51446.2 2598.41   4
   8   2   8 37400.9 2273.11   4
   8   2   9 34783.7 2249.36   4
   8   2  10 41203.6 2551.61   4
   8   2  11 30316.3 2257.02   4
   8   2  12 35356.6 2505.96   4
   8   2  13 7675.80 1217.19   4
   8   2  14 20132.1 1992.87   4
   8   2  15 6471.81 1163.23   4
   8   2  16 9448.84 1490.66   4
   8   2  17 20165.8 2172.06   4
   8   2  18 230.475 409.241   4
   8   2  19 23336.1 2471.01   4
   8   2  20 954.529 688.731   4
   8   3 -14 7204.46 1263.43   2
   8   3 -13 14213.6 1674.76   2
   8   3 -12 1976.99 617.839   2
   8   3 -11 16805.3 1700.95   2
   8   3 -10-277.715 383.693   2
   8   3 -10 296.536 324.332   6
   8   3  -9 21967.2 1814.66   2
   8   3  -9 22271.9 1873.47   6
   8   3  -8 10706.7 1225.46   2
   8   3  -8 12116.2 1330.36   6
   8   3  -7 12344.2 1279.56   2
   8   3  -7 12314.6 1278.34   6
   8   3  -6 21682.3 1626.21   2
   8   3  -6 19046.7 1534.63   6
   8   3  -5 9022.73 1021.11   2
   8   3  -5 8482.23 974.893   6
   8   3  -4 26692.2 1695.43   6
   8   3  -4 30674.0 1831.63   2
   8   3  -3 1476.03 413.217   2
   8   3  -3 1962.73 457.914   6
   8   3  -2 37553.5 1866.09   6
   8   3  -2 32763.2 1812.54   2
   8   3  -1 10967.3 971.927   6
   8   3  -1 11748.8 1036.81   2
   8   3   0 21985.0 1368.18   6
   8   3   0 21608.1 1396.68   2
   8   3   1 48071.5 2042.44   6
   8   3   1 48669.6 2108.77   2
   8   3   2 624.927 235.664   6
   8   3   2 1480.20 402.601   2
   8   3   3 97044.0 3060.35   6
   8   3   3 97786.0 3034.39   2
   8   3   4 30772.0 1617.26   6
   8   3   4 27260.0 1474.61   2
   8   3   5 36681.9 1834.75   6
   8   3   5 32788.1 1631.06   2
   8   3   6 56029.8 2523.09   4
   8   3   7 32098.4 1940.98   4
   8   3   8 61871.0 2852.10   4
   8   3   9 36195.2 2223.56   4
   8   3  10 36203.0 2305.15   4
   8   3  11 464.628 292.931   4
   8   3  12 22243.9 1899.46   4
   8   3  13 8313.49 1225.16   4
   8   3  14 9056.58 1302.21   4
   8   3  15 15215.4 1750.47   4
   8   3  16 2453.30 760.975   4
   8   3  17 11423.2 1609.47   4
   8   3  18 14668.6 1868.96   4
   8   3  19 7514.91 1424.21   4
   8   3  20 12434.0 1828.40   4
   8   4 -14-620.252 553.227   2
   8   4 -13 14276.4 1732.69   2
   8   4 -12 715.304 366.908   2
   8   4 -11 7882.54 1238.78   2
   8   4 -10 4636.36 942.727   2
   8   4  -9 3218.87 725.327   2
   8   4  -8 16050.4 1573.71   2
   8   4  -7-931.665 412.560   2
   8   4  -6 24764.4 1861.90   2
   8   4  -5 521.953 264.174   2
   8   4  -4 28569.1 1897.49   2
   8   4  -3 18520.0 1482.03   2
   8   4  -2 4005.20 705.793   2
   8   4  -1 78773.6 3108.98   2
   8   4   0 30110.2 1420.15   6
   8   4   0 32885.0 1902.75   2
   8   4   1 61159.9 2065.66   6
   8   4   1 60741.0 2621.86   2
   8   4   2 89679.8 2585.13   6
   8   4   2 87465.5 3204.56   2
   8   4   3 40719.9 1655.06   6
   8   4   3 40489.6 2052.30   2
   8   4   4 59838.3 2506.57   2
   8   4   5 70415.1 2781.93   2
   8   4   5 81337.7 2837.00   4
   8   4   6 14419.5 1188.17   2
   8   4   6 17872.9 1291.74   4
   8   4   7 365.817 211.344   4
   8   4   8 28300.4 1799.56   4
   8   4   9 7324.17 942.231   4
   8   4  10 13249.3 1316.50   4
   8   4  11 34974.0 2257.67   4
   8   4  12 3028.73 686.147   4
   8   4  13 22364.6 1918.40   4
   8   4  14 956.640 429.261   4
   8   4  15 12128.0 1497.71   4
   8   4  16 14700.2 1723.15   4
   8   4  17 4112.83 976.469   4
   8   4  18 22274.9 2263.14   4
   8   4  19-230.201 424.216   4
   8   4  20 17399.4 2140.48   4
   8   4  21 603.630 412.343   4
   8   5 -14 2641.16 850.247   2
   8   5 -13 3896.18 988.076   2
   8   5 -12 10119.3 1513.32   2
   8   5 -11 3789.69 860.823   2
   8   5 -10 5611.68 1080.06   2
   8   5  -9 6131.15 1075.28   2
   8   5  -8 19851.4 1836.21   2
   8   5  -7 16113.3 1618.12   2
   8   5  -6 15449.3 1543.00   2
   8   5  -5 42194.3 2532.16   2
   8   5  -4 317.103 293.808   2
   8   5  -3 30790.1 2061.91   2
   8   5  -2 22913.6 1754.41   2
   8   5  -1 31338.4 2041.64   2
   8   5   0 37530.6 2227.45   2
   8   5   1 21736.3 1637.00   2
   8   5   2 43785.5 2356.73   2
   8   5   3 429.782 343.738   2
   8   5   4 43406.6 2303.20   2
   8   5   5 2032.12 502.873   2
   8   5   6 20697.4 1551.92   2
   8   5   6 21652.2 1316.29   4
   8   5   7 51918.3 2197.04   4
   8   5   7 49400.7 2474.61   2
   8   5   8 6896.76 825.187   4
   8   5   9 41787.6 2160.19   4
   8   5  10-20.9866 217.021   4
   8   5  11 15141.1 1397.76   4
   8   5  12 11436.9 1262.27   4
   8   5  13 6801.77 1022.26   4
   8   5  14 14135.0 1511.64   4
   8   5  15 5837.85 1030.23   4
   8   5  16 21270.3 2026.11   4
   8   5  17 21.8871 328.646   4
   8   5  18 26147.6 2399.71   4
   8   5  19 5738.15 1185.00   4
   8   5  20 6849.04 1352.47   4
   8   5  21 4005.06 1078.51   4
   8   6 -13 2556.37 841.706   2
   8   6 -12 17650.5 2035.69   2
   8   6 -11 7270.21 1285.37   2
   8   6 -10 14078.4 1721.62   2
   8   6  -9 18397.9 1926.41   2
   8   6  -8 2005.48 649.226   2
   8   6  -7 22181.3 2010.05   2
   8   6  -6 4836.62 952.336   2
   8   6  -5 19966.3 1834.91   2
   8   6  -4 15438.6 1591.58   2
   8   6  -3 3549.95 796.819   2
   8   6  -2 17504.6 1631.73   2
   8   6  -1 4840.90 865.037   2
   8   6   0 35156.3 2300.37   2
   8   6   1 2098.13 576.755   2
   8   6   2 37640.5 2353.54   2
   8   6   3 45157.5 2549.34   2
   8   6   4 11790.3 1278.01   2
   8   6   5 48593.4 2615.84   2
   8   6   6 2492.28 609.828   2
   8   6   7 29043.4 2018.49   2
   8   6   8 4106.48 767.934   2
   8   6  16 15921.6 1724.90   5
   8   7 -12 5196.79 1151.66   2
   8   7 -11 11506.3 1696.39   2
   8   7 -10 1246.62 630.482   2
   8   7  -9 13560.3 1723.72   2
   8   7  -8 7580.66 1279.40   2
   8   7  -7 8718.02 1360.65   2
   8   7  -6 15094.9 1698.85   2
   8   7  -5 2144.71 706.550   2
   8   7  -4 19947.3 1904.48   2
   8   7  -3 155.351 328.164   2
   8   7  -2 18621.7 1788.98   2
   8   7  -1 11830.0 1430.83   2
   8   7   0 16372.7 1678.62   2
   8   7   1 21354.6 1875.42   2
   8   7   2 4284.80 875.614   2
   8   7   3 41968.3 2624.62   2
   8   7   4 705.954 432.704   2
   8   7   5 23796.3 1959.75   2
   8   7   6 19820.7 1756.55   2
   8   7   7 13733.8 1464.68   2
   8   7   8 33852.9 2342.62   2
   8   7  14 4724.53 973.951   5
   8   7  15 9645.21 1404.02   5
   8   7  16-221.240 341.080   5
   8   7  17 14882.2 1690.69   1
   8   8 -11 5502.08 1268.23   2
   8   8 -10 11923.3 1746.00   2
   8   8  -9 5515.42 1180.09   2
   8   8  -8 11423.2 1651.43   2
   8   8  -7 659.609 531.579   2
   8   8  -6 16741.2 1931.57   2
   8   8  -5 3354.06 943.150   2
   8   8  -4 6432.82 1170.03   2
   8   8  -3 16964.9 1859.71   2
   8   8  -2 402.334 387.990   2
   8   8  -1 24459.5 2174.06   2
   8   8   0 939.307 534.073   2
   8   8   1 36032.8 2638.67   2
   8   8   2 692.430 466.922   2
   8   8   3 29109.5 2317.54   2
   8   8   4 13657.0 1588.48   2
   8   8   5 4490.35 938.147   2
   8   8   6 40871.8 2717.31   2
   8   8   7-4.67011 382.998   2
   8   8   8 28391.9 2256.14   2
   8   8   9 4186.90 858.638   2
   8   8  12 1462.76 616.730   5
   8   8  13 18564.3 1987.89   5
   8   8  14 366.331 418.827   5
   8   8  15 14798.6 1816.32   5
   8   8  16 11107.1 1554.13   5
   8   8  17 12427.9 1635.22   1
   8   8  18 6971.62 1272.64   1
   8   9  -9 2343.45 852.699   2
   8   9  -8 18713.7 2179.70   2
   8   9  -7 3886.23 1014.42   2
   8   9  -6 10624.8 1636.03   2
   8   9  -5 11501.4 1627.16   2
   8   9  -4 103.565 424.525   2
   8   9  -3 21446.9 2208.80   2
   8   9  -2 549.818 590.787   2
   8   9  -1 12141.4 1655.53   2
   8   9   0 8754.15 1394.33   2
   8   9   1 11336.7 1565.52   2
   8   9   2 18152.5 1942.95   2
   8   9   3-175.781 419.405   2
   8   9   4 26783.1 2315.41   2
   8   9   5 2841.93 802.211   2
   8   9   6 11056.7 1502.95   2
   8   9   7 25286.3 2245.61   2
   8   9   8 4636.67 992.587   2
   8   9   9 24848.8 2354.21   5
   8   9   9 22132.5 2121.73   2
   8   9  10 1499.65 705.891   5
   8   9  11 21433.4 2204.55   5
   8   9  12 3987.97 1014.18   5
   8   9  13 18027.7 2049.62   5
   8   9  14 12037.9 1698.95   5
   8   9  15-21.8194 360.623   5
   8   9  16 14274.0 1831.93   5
   8   9  17 1027.86 564.378   1
   8  10  -7 7952.16 1549.51   2
   8  10  -6 980.012 495.038   2
   8  10  -6 2439.51 764.207   5
   8  10  -5 9450.20 1581.21   2
   8  10  -5 11297.4 1565.66   5
   8  10  -4 2879.72 888.059   2
   8  10  -4 3058.49 871.937   5
   8  10  -3 15346.1 1981.81   2
   8  10  -3 13756.9 1779.97   5
   8  10  -2 14703.4 1926.46   2
   8  10  -2 16173.0 1907.46   5
   8  10  -1-559.822 518.798   2
   8  10  -1 91.0873 340.571   5
   8  10   0 22570.0 2326.11   2
   8  10   0 25240.4 2393.18   5
   8  10   1 3166.59 1029.89   2
   8  10   1 3253.46 857.608   5
   8  10   2 18252.0 2082.56   5
   8  10   2 18794.0 2099.88   2
   8  10   3 2460.82 764.407   5
   8  10   3 1595.02 727.185   2
   8  10   4 7180.23 1327.10   5
   8  10   4 7843.81 1310.04   2
   8  10   5 18276.4 2103.33   5
   8  10   5 16633.4 1919.37   2
   8  10   6 582.609 434.908   5
   8  10   6 90.4320 383.600   2
   8  10   7 16031.0 1939.40   5
   8  10   7 14996.3 1830.19   2
   8  10   8 4273.23 992.010   2
   8  10   8 4637.91 1052.07   5
   8  10   9 15012.3 1944.01   5
   8  10   9 16277.1 1912.42   2
   8  10  10 4675.38 1211.69   5
   8  10  11 4156.77 1070.07   5
   8  10  12 23671.8 2422.49   5
   8  10  13 497.999 414.417   5
   8  10  14 13906.5 1865.68   5
   8  10  15 4765.59 1095.11   5
   8  10  16 7894.23 1412.39   5
   8  10  17 7563.60 1413.95   5
   8  11  -5 3636.58 1118.39   2
   8  11  -5 2518.02 750.625   5
   8  11  -4 16171.6 2138.81   2
   8  11  -4 12953.1 1751.07   5
   8  11  -3 85.2235 544.108   2
   8  11  -3 367.373 425.881   5
   8  11  -2 21145.2 2398.71   2
   8  11  -2 21695.2 2285.46   5
   8  11  -1 829.356 542.503   2
   8  11  -1 2085.35 720.206   5
   8  11   0 6497.66 1368.99   2
   8  11   0 5411.21 1201.15   5
   8  11   1 18431.2 2154.83   5
   8  11   1 17865.1 2173.40   2
   8  11   2-410.021 422.546   5
   8  11   2 602.600 572.735   2
   8  11   3 10529.9 1674.39   5
   8  11   3 8251.79 1444.85   2
   8  11   4 282.095 375.810   5
   8  11   4-39.5880 529.875   2
   8  11   5 7756.93 1405.76   5
   8  11   5 12147.2 1754.44   2
   8  11   6 4340.19 1090.60   5
   8  11   6 4029.50 1085.84   2
   8  11   7 7300.95 1388.71   2
   8  11   7 5512.07 1220.91   5
   8  11   8 12134.4 1842.91   5
   8  11   8 15097.5 1907.38   2
   8  11   9 1077.15 508.802   2
   8  11   9 1740.41 737.946   5
   8  11  10 10971.8 1701.17   5
   8  11  11 3051.74 895.942   5
   8  11  12 11595.3 1763.96   5
   8  11  13 6476.73 1327.53   5
   8  12  -4 4236.53 1047.07   5
   8  12  -3 6486.44 1277.29   5
   8  12  -2 3569.91 958.756   5
   8  12  -1 18096.4 2181.75   5
   8  12  -1 15663.6 2166.03   2
   8  12   0 1612.76 809.268   2
   8  12   0 60.0229 345.364   5
   8  12   1 16253.7 2102.78   5
   8  12   1 18228.8 2302.01   2
   8  12   2 2381.55 798.372   5
   8  12   2 2025.23 721.722   2
   8  12   3 5145.35 1209.55   5
   8  12   3 5887.03 1310.41   2
   8  12   4 1003.13 651.772   5
   8  12   4 1691.87 734.656   2
   8  12   5 111.016 473.250   5
   8  12   5 1725.44 819.082   2
   8  12   6 8041.64 1516.65   5
   8  12   6 7571.32 1428.41   2
   8  12   7-434.877 544.476   2
   8  12   8 10602.2 1717.81   2
   9  -8   0 10637.4 1849.61   6
   9  -8   1 8959.45 1645.26   6
   9  -8   2 3092.44 1057.13   6
   9  -8   3 19361.6 2404.72   6
   9  -8   4 403.583 584.972   6
   9  -8   5 21096.5 2507.67   6
   9  -7  -4 29125.4 2949.86   6
   9  -7  -3 6842.19 1408.25   6
   9  -7  -2 9353.19 1685.05   6
   9  -7  -1 22082.5 2553.23   6
   9  -7   0 2655.25 1012.25   6
   9  -7   1 29670.3 2895.54   6
   9  -7   2-741.491 721.335   6
   9  -7   3 12725.4 1877.23   6
   9  -7   4 4221.07 1140.56   6
   9  -7   5 2624.21 916.481   6
   9  -7   6 17752.9 2216.91   6
   9  -7   7 2532.73 871.433   6
   9  -7   8 12503.5 1934.61   6
   9  -7   9 1225.59 751.572   6
   9  -7  10 7089.21 1552.21   6
   9  -6  -7 338.159 439.308   6
   9  -6  -6 14758.6 2066.86   6
   9  -6  -5 14617.1 2057.64   6
   9  -6  -4 6299.91 1298.17   6
   9  -6  -3 53980.4 3843.86   6
   9  -6  -2 1182.71 696.350   6
   9  -6  -1 24174.7 2556.61   6
   9  -6   0 4813.48 1121.22   6
   9  -6   1 8139.65 1508.92   6
   9  -6   2 10302.2 1642.76   6
   9  -6   3 2666.66 851.040   6
   9  -6   4 21343.8 2347.23   6
   9  -6   5 190.799 526.939   6
   9  -6   6 14370.1 1921.01   6
   9  -6   7 6048.93 1261.49   6
   9  -6   8 8687.08 1558.50   6
   9  -6   9 15509.1 2098.60   6
   9  -6  10 1276.93 712.837   6
   9  -6  11 13447.9 1992.32   6
   9  -6  12 698.241 558.340   4
   9  -5  -8 5638.98 1320.85   6
   9  -5  -7 25113.9 2624.18   6
   9  -5  -6-511.510 643.740   6
   9  -5  -5 14322.3 1933.74   6
   9  -5  -4 5428.00 1253.93   6
   9  -5  -3 17705.6 2090.22   6
   9  -5  -2 10887.3 1652.81   6
   9  -5  -1 6626.16 1330.12   6
   9  -5   0 35938.7 2954.66   6
   9  -5   1 513.972 443.647   6
   9  -5   2 16304.5 1948.84   6
   9  -5   3 1465.42 602.267   6
   9  -5   4 17955.9 2024.60   6
   9  -5   5 20616.6 2200.14   6
   9  -5   6 4751.83 1100.22   6
   9  -5   7 30034.9 2712.83   6
   9  -5   8 1.65072 435.268   6
   9  -5   9 19590.5 2247.94   6
   9  -5  10 4683.13 1170.62   6
   9  -5  11 12355.1 1855.12   6
   9  -5  12 4265.06 1162.38   4
   9  -5  13 4149.30 1175.35   4
   9  -5  14 7882.48 1590.53   4
   9  -4 -10-34.3119 443.358   6
   9  -4  -9 19166.4 2275.12   6
   9  -4  -8 9002.32 1544.86   6
   9  -4  -7 14100.1 1914.21   6
   9  -4  -6 18995.3 2166.68   6
   9  -4  -5 11347.2 1675.99   6
   9  -4  -4 11756.5 1681.08   6
   9  -4  -3 5729.91 1163.83   6
   9  -4  -2 27327.9 2465.91   6
   9  -4  -1 95.0865 426.547   6
   9  -4   0 35134.6 2791.46   6
   9  -4   1 18725.8 2033.83   6
   9  -4   2 7090.04 1226.89   6
   9  -4   3 31626.3 2609.00   6
   9  -4   4 1341.40 470.251   6
   9  -4   5 27756.7 2454.63   6
   9  -4   6 1612.38 631.727   6
   9  -4   7 19471.0 2077.68   6
   9  -4   8 14078.7 1797.85   6
   9  -4   9 3473.49 926.536   6
   9  -4  10 17960.9 2133.69   6
   9  -4  11 1354.03 687.913   4
   9  -4  11 541.864 512.498   6
   9  -4  12 20161.8 2353.61   4
   9  -4  13 1494.88 745.959   4
   9  -4  14 10974.3 1787.94   4
   9  -4  15 7750.69 1535.34   4
   9  -3 -11 13668.0 1986.15   6
   9  -3 -10 13638.9 1922.59   6
   9  -3  -9 12261.6 1793.42   6
   9  -3  -8 18788.3 2154.99   6
   9  -3  -7 4417.67 1060.21   6
   9  -3  -6 36853.8 2912.42   6
   9  -3  -5 876.725 564.139   6
   9  -3  -4 27106.0 2408.91   6
   9  -3  -3 1094.67 588.623   6
   9  -3  -2 9135.45 1384.45   6
   9  -3  -1 9016.86 1344.59   6
   9  -3   0 14803.1 1752.34   6
   9  -3   1 38362.1 2766.90   6
   9  -3   2 3648.99 850.127   6
   9  -3   3 27064.0 2307.95   6
   9  -3   4 18154.6 1904.97   6
   9  -3   5 15412.1 1746.07   6
   9  -3   6 16927.1 1847.27   6
   9  -3   7 5453.75 1098.55   6
   9  -3   8 25934.6 2354.20   6
   9  -3   9 1693.09 683.374   6
   9  -3  10 21615.6 2245.61   6
   9  -3  11 23356.6 2379.51   4
   9  -3  11 21867.0 2282.83   6
   9  -3  12 18494.1 2170.99   4
   9  -3  13 22056.0 2419.10   4
   9  -3  14-884.135 592.254   4
   9  -3  15 22167.7 2573.44   4
   9  -3  16 219.680 501.836   4
   9  -2 -12 13772.6 1970.66   6
   9  -2 -11 8335.05 1509.03   6
   9  -2 -10 14357.8 1879.29   6
   9  -2  -9 1625.63 735.324   6
   9  -2  -8 15358.2 1859.11   6
   9  -2  -7 1925.24 779.184   6
   9  -2  -6 19047.5 1988.69   6
   9  -2  -5 19924.6 2017.76   6
   9  -2  -4 21393.5 2048.55   6
   9  -2  -3 19348.5 1908.41   6
   9  -2  -2 526.635 466.091   6
   9  -2  -1 27725.8 2255.62   6
   9  -2   0 877.617 556.560   6
   9  -2   1 17078.3 1784.01   6
   9  -2   2 30298.3 2352.60   6
   9  -2   3 6425.30 1077.25   6
   9  -2   4 49120.0 3002.43   6
   9  -2   5 84.4425 483.381   6
   9  -2   6 25940.6 2181.36   6
   9  -2   7 5850.38 1056.64   6
   9  -2   8 12051.4 1564.45   6
   9  -2   9 39377.6 2857.68   6
   9  -2  10 2729.14 817.347   6
   9  -2  11 54693.8 3554.07   4
   9  -2  12 17.4820 455.481   4
   9  -2  13 25024.6 2494.92   4
   9  -2  14 9660.87 1604.70   4
   9  -2  15 8612.61 1547.62   4
   9  -2  16 10438.2 1760.25   4
   9  -2  17 1630.41 789.472   4
   9  -1 -13 3268.87 936.490   6
   9  -1 -12 11871.1 1766.92   6
   9  -1 -11 344.555 370.577   6
   9  -1 -10 20549.3 2186.79   6
   9  -1  -9 5463.96 1127.75   6
   9  -1  -8 18070.6 1980.37   6
   9  -1  -7 24482.9 2271.24   6
   9  -1  -6 1320.49 583.656   6
   9  -1  -5 53145.6 3196.73   6
   9  -1  -4-197.455 340.845   6
   9  -1  -3 35105.7 2485.48   6
   9  -1  -2 13050.4 1474.79   6
   9  -1  -1 6812.52 1070.54   6
   9  -1   0 26766.5 2119.48   6
   9  -1   1 2002.19 644.755   6
   9  -1   2 12785.8 1438.72   6
   9  -1   3 2375.11 654.551   6
   9  -1   4 21437.0 1877.98   6
   9  -1   5 50435.3 2923.11   6
   9  -1   6 9492.86 1256.87   6
   9  -1   7 62366.3 3354.89   6
   9  -1   8 1084.05 539.458   6
   9  -1   9 42582.2 2854.42   6
   9  -1  10 8679.93 1304.89   6
   9  -1  10 7459.74 1243.27   4
   9  -1  11 27703.6 2428.35   4
   9  -1  12 25833.3 2437.41   4
   9  -1  13 2843.53 854.317   4
   9  -1  14 21511.4 2332.96   4
   9  -1  15-347.996 614.420   4
   9  -1  16 16374.6 2104.09   4
   9  -1  17 3547.62 1024.69   4
   9  -1  18 4896.20 1252.45   4
   9   0 -13 1784.84 753.250   6
   9   0 -12 14014.2 1879.26   6
   9   0 -11 17061.2 2023.06   6
   9   0 -10 8860.45 1399.01   6
   9   0  -9 30646.5 2544.74   6
   9   0  -8 1807.89 707.210   6
   9   0  -7 37681.7 2687.31   6
   9   0  -6 11745.6 1488.28   6
   9   0  -5 19720.9 1838.54   6
   9   0  -4 26874.5 2106.51   6
   9   0  -3 1954.27 591.529   6
   9   0  -2 18742.9 1693.30   6
   9   0  -1 116.206 357.178   6
   9   0   0 16257.5 1556.50   6
   9   0   1 24635.9 1917.55   6
   9   0   2 3516.74 716.577   6
   9   0   3 58907.3 2992.76   6
   9   0   4 3822.60 763.579   6
   9   0   5 60142.6 3051.17   6
   9   0   6 176.890 318.646   6
   9   0   7 25563.4 2009.59   6
   9   0   8 16694.6 1660.30   6
   9   0   9 12647.3 1484.84   6
   9   0  10 45772.5 2970.90   4
   9   0  11 1864.73 661.977   4
   9   0  12 27501.3 2424.99   4
   9   0  13 4470.39 984.931   4
   9   0  14 12106.1 1698.83   4
   9   0  15 3973.57 1017.89   4
   9   0  16 7011.48 1363.29   4
   9   0  17 22500.1 2465.31   4
   9   0  18-538.520 670.099   4
   9   0  19 15971.6 2209.36   4
   9   1 -13 14814.9 1942.86   6
   9   1 -12 1463.50 647.741   6
   9   1 -11 24289.6 2319.76   6
   9   1 -10 2463.77 776.856   6
   9   1  -9 19499.3 1964.92   6
   9   1  -8 10366.7 1381.24   6
   9   1  -7 4930.54 952.231   6
   9   1  -6 30062.0 2246.86   6
   9   1  -5 2692.04 678.400   6
   9   1  -4 19211.1 1693.74   6
   9   1  -3 9372.44 1163.93   6
   9   1  -2 9795.25 1167.90   6
   9   1  -1 37512.6 2276.33   6
   9   1   0 3918.62 725.371   6
   9   1   1 81756.8 3434.28   6
   9   1   2-155.562 310.604   6
   9   1   3 24359.1 1781.37   6
   9   1   4 6664.08 942.097   6
   9   1   5 11344.4 1217.38   6
   9   1   6 34215.2 2177.95   6
   9   1   7 2039.16 582.874   6
   9   1   8 46369.4 2695.72   6
   9   1   9 228.266 377.463   4
   9   1  10 27779.2 2242.42   4
   9   1  11 4692.49 955.364   4
   9   1  12 19813.6 2010.80   4
   9   1  13 17113.0 1912.44   4
   9   1  14 621.140 493.318   4
   9   1  15 22049.4 2276.30   4
   9   1  16 7789.23 1402.79   4
   9   1  17 35408.0 3061.81   4
   9   1  18 15355.7 2042.26   4
   9   1  19 22029.5 2530.47   4
   9   2 -10 15166.7 1708.21   6
   9   2  -9 551.714 422.181   6
   9   2  -8 23324.3 2004.54   6
   9   2  -7 311.799 256.701   6
   9   2  -6 25751.6 1977.17   6
   9   2  -5 8302.23 1083.36   6
   9   2  -4 16392.0 1475.19   6
   9   2  -3 41542.2 2347.75   6
   9   2  -2 112.711 273.605   6
   9   2  -1 37208.5 2139.89   6
   9   2   0 5991.73 852.011   6
   9   2   1 14826.4 1297.31   6
   9   2   2 23072.3 1614.68   6
   9   2   3 18006.4 1419.04   6
   9   2   4 42894.7 2232.54   6
   9   2   5 3445.88 627.923   6
   9   2   6 13340.9 1290.43   6
   9   2   7 8776.58 1064.90   6
   9   2   8 9293.78 1185.03   4
   9   2   9 16043.9 1593.61   4
   9   2  10 3040.77 799.396   4
   9   2  11 32130.0 2419.62   4
   9   2  12 3086.60 807.740   4
   9   2  13 67512.3 3758.06   4
   9   2  14 22459.5 2175.62   4
   9   2  15 37451.3 2902.39   4
   9   2  16 32938.3 2787.45   4
   9   2  17 9958.69 1572.57   4
   9   2  18 16678.6 2075.53   4
   9   2  19 1328.16 796.936   4
   9   3  -3 12643.3 1180.54   6
   9   3  -2 5005.91 747.361   6
   9   3  -1 15410.6 1268.48   6
   9   3   0 31925.1 1798.64   6
   9   3   1 3630.54 596.603   6
   9   3   2 31249.9 1729.51   6
   9   3   3 2081.42 467.457   6
   9   3   4 34667.6 1867.67   6
   9   3   5 9698.04 991.880   6
   9   3   7 31839.3 2032.84   4
   9   3   8 6315.87 943.883   4
   9   3   9 66156.1 3198.36   4
   9   3  10 16485.4 1603.45   4
   9   3  11 58288.2 3168.27   4
   9   3  12 27636.2 2204.69   4
   9   3  13 55463.0 3239.31   4
   9   3  14 12184.7 1539.81   4
   9   3  15 986.091 494.537   4
   9   3  16 20859.1 2152.10   4
   9   3  17 8360.87 1400.44   4
   9   3  18 6665.84 1305.87   4
   9   3  19 4789.76 1198.20   4
   9   3  20 8431.58 1566.54   4
   9   4  -7 18237.1 1681.85   2
   9   4  -6 1043.38 456.887   2
   9   4  -5 11652.5 1267.56   2
   9   4  -4 3267.39 692.723   2
   9   4  -3 14170.4 1347.19   2
   9   4  -2 20955.2 1605.95   2
   9   4  -1 1246.95 411.322   2
   9   4   0 61381.5 2731.09   2
   9   4   1 20545.7 1493.36   2
   9   4   2 12478.8 1159.49   2
   9   4   3 38336.4 1992.14   2
   9   4   4 7790.18 867.708   2
   9   4   5 30987.4 1748.16   2
   9   4   5 32688.1 1836.93   4
   9   4   6 3845.57 648.997   4
   9   4   7 32871.7 1975.06   4
   9   4   8 31204.1 1989.28   4
   9   4   9 40885.0 2370.91   4
   9   4  10 22503.8 1792.76   4
   9   4  11 1640.23 512.117   4
   9   4  12 16490.0 1642.37   4
   9   4  13 5733.64 1024.32   4
   9   4  14 26316.5 2219.05   4
   9   4  15 9528.14 1382.86   4
   9   4  16 15533.2 1797.50   4
   9   4  17 19379.9 2100.43   4
   9   4  18 399.021 534.458   4
   9   4  19 14022.9 1902.17   4
   9   4  20 982.389 553.070   4
   9   5 -10 450.457 268.416   2
   9   5  -9 10086.2 1383.01   2
   9   5  -8 4418.39 888.267   2
   9   5  -7 8375.77 1214.54   2
   9   5  -6 18281.4 1732.31   2
   9   5  -5 1893.77 657.152   2
   9   5  -4 42768.6 2589.03   2
   9   5  -3 7680.13 1067.73   2
   9   5  -2 35467.0 2258.97   2
   9   5  -1 20475.6 1686.71   2
   9   5   0 14680.2 1395.77   2
   9   5   1 17688.1 1518.46   2
   9   5   2-198.698 327.279   2
   9   5   3 20233.1 1562.70   2
   9   5   4 7468.02 945.890   2
   9   5   5 26427.7 1775.88   2
   9   5   6 19679.5 1508.05   2
   9   5  13 20600.3 1817.03   4
   9   5  14 4123.96 846.797   4
   9   5  15 15359.0 1695.71   4
   9   5  16 147.002 326.066   4
   9   5  17 19552.4 2029.95   4
   9   5  18 7724.14 1310.71   4
   9   5  19 7932.02 1391.14   4
   9   6 -11 14759.6 1855.60   2
   9   6 -10 6636.38 1256.55   2
   9   6  -9 6598.12 1201.43   2
   9   6  -8 29637.1 2460.96   2
   9   6  -7 3721.24 829.139   2
   9   6  -6 39395.6 2735.19   2
   9   6  -5 15652.0 1662.36   2
   9   6  -4 5981.21 1008.67   2
   9   6  -3 11151.1 1367.73   2
   9   6  -2 118.030 323.759   2
   9   6  -1 16153.5 1607.27   2
   9   6   0 444.684 421.358   2
   9   6   1 24792.7 1941.60   2
   9   6   2 9968.44 1216.45   2
   9   6   3 11675.1 1297.20   2
   9   6   4 25224.9 1911.52   2
   9   6   5-17.3083 321.585   2
   9   6   6 28089.0 1981.01   2
   9   6   7 9677.86 1150.28   2
   9   7 -11-579.717 564.525   2
   9   7 -10 19983.0 2202.33   2
   9   7  -9 8973.42 1461.14   2
   9   7  -8 18677.2 2033.64   2
   9   7  -7 10442.9 1487.96   2
   9   7  -6 57.3238 387.428   2
   9   7  -5 16883.2 1837.72   2
   9   7  -4 2343.16 748.788   2
   9   7  -3 13399.1 1572.68   2
   9   7  -2 6498.73 1111.37   2
   9   7  -1 21136.6 1992.70   2
   9   7   0 15721.8 1667.91   2
   9   7   1 5275.04 1004.30   2
   9   7   2 29947.2 2267.14   2
   9   7   3-114.858 376.608   2
   9   7   4 16947.8 1669.11   2
   9   7   5 20942.6 1822.92   2
   9   7   6 4677.63 896.473   2
   9   7   7 24142.6 1965.97   2
   9   7   8 2761.75 692.798   2
   9   7  15-355.458 442.202   5
   9   7  16 14225.9 1769.16   5
   9   8  -9 11245.8 1695.84   2
   9   8  -8 561.945 436.672   2
   9   8  -7 18112.5 2080.72   2
   9   8  -6-1771.69 705.131   2
   9   8  -5 15888.8 1898.71   2
   9   8  -4 16972.3 1908.22   2
   9   8  -3 604.991 576.318   2
   9   8  -2 23272.6 2196.82   2
   9   8  -1 1287.30 553.626   2
   9   8   0 25965.0 2272.44   2
   9   8   1 5039.50 1071.01   2
   9   8   2 21450.7 2021.72   2
   9   8   3 9082.38 1331.51   2
   9   8   4 2068.84 675.401   2
   9   8   5 20547.6 1956.68   2
   9   8   6-369.798 360.414   2
   9   8   7 12765.8 1531.33   2
   9   8   8 2075.64 658.802   2
   9   8  13-284.029 565.285   5
   9   8  14 17783.5 2026.42   5
   9   8  15 7406.94 1342.39   5
   9   8  16 4009.44 1010.90   5
   9   9  -8 3923.07 1020.70   2
   9   9  -7 5485.60 1221.02   2
   9   9  -6 6157.54 1262.84   2
   9   9  -5 566.118 467.789   2
   9   9  -4 28718.9 2641.85   2
   9   9  -3 1873.81 663.014   2
   9   9  -2 26190.6 2463.16   2
   9   9  -1 8143.30 1395.27   2
   9   9   0 2637.45 868.880   2
   9   9   1 16562.3 1884.31   2
   9   9   2 3496.37 926.238   2
   9   9   3 18146.1 1957.82   2
   9   9   4-85.1342 527.492   2
   9   9   5 12105.2 1575.13   2
   9   9   6 9400.26 1392.12   2
   9   9   7 989.771 586.043   2
   9   9   8 20453.0 2053.94   2
   9   9   9 643.959 433.455   2
   9   9  11 133.046 398.577   5
   9   9  12 13375.8 1806.23   5
   9   9  13 16143.8 2033.86   5
   9   9  14 4296.01 1079.04   5
   9   9  15 13080.4 1840.16   5
   9   9  16 4905.41 1184.77   5
   9  10  -6 15823.6 2092.40   2
   9  10  -5-47.4368 476.437   2
   9  10  -5 566.819 466.113   5
   9  10  -4 4864.02 1171.73   2
   9  10  -4 5901.90 1217.95   5
   9  10  -3 12083.6 1815.69   2
   9  10  -2 6345.52 1342.62   2
   9  10  -1 25376.1 2536.66   2
   9  10   0 2009.92 830.336   2
   9  10   1 22915.3 2369.40   2
   9  10   2 4381.28 1040.94   2
   9  10   3 8432.74 1431.97   2
   9  10   4 14429.7 1821.51   2
   9  10   5 1312.76 597.284   2
   9  10   6 16193.4 1945.72   2
   9  10   7-676.858 638.230   2
   9  10   7 98.1496 386.073   5
   9  10   8 13023.1 1817.74   5
   9  10   8 13637.5 1752.78   2
   9  10   9 3934.10 929.820   2
   9  10   9 4585.49 1058.96   5
   9  10  10 4595.46 1121.84   5
   9  10  11 14241.7 1968.60   5
   9  10  12-173.731 366.713   5
   9  10  13 16867.4 2140.34   5
   9  10  14 564.868 600.578   5
   9  11  -4 628.972 543.512   5
   9  11  -3 24706.8 2677.06   2
   9  11  -3 22998.8 2450.86   5
   9  11  -2 1275.78 743.164   2
   9  11  -2-178.690 407.435   5
   9  11  -1 20598.1 2393.70   2
   9  11  -1 17229.5 2114.84   5
   9  11   0 6750.74 1414.58   2
   9  11   0 6624.60 1324.25   5
   9  11   1 1816.73 739.158   5
   9  11   1 1441.18 710.210   2
   9  11   2 14317.2 1925.55   5
   9  11   2 12249.1 1788.84   2
   9  11   3 1316.32 611.460   5
   9  11   3-197.406 665.405   2
   9  11   4 11124.8 1714.82   5
   9  11   4 11222.2 1732.12   2
   9  11   5 7296.09 1395.91   5
   9  11   5 4402.77 1117.27   2
   9  11   6 7590.53 1414.23   5
   9  11   6 5379.88 1241.22   2
   9  11   7 22215.5 2482.60   5
   9  11   7 19094.9 2195.32   2
   9  11   8 5855.55 1253.39   2
   9  11   8 6776.21 1395.86   5
   9  11   9 14169.4 1872.06   2
   9  11   9 19541.5 2322.37   5
   9  12   4 4233.07 1116.49   2
   9  12   5 29478.3 2872.94   2
  10  -6  -3 1980.99 843.294   6
  10  -6  -2 29381.7 2957.03   6
  10  -6  -1 5380.65 1311.92   6
  10  -6   0 10067.5 1731.99   6
  10  -6   1 13162.2 1961.55   6
  10  -6   2 4332.22 1177.67   6
  10  -6   3 21728.3 2459.49   6
  10  -6   4 164.431 537.662   6
  10  -6   5 20997.2 2425.65   6
  10  -6   6 12847.1 1935.28   6
  10  -6   7 7255.59 1497.20   6
  10  -6   8 18051.0 2309.18   6
  10  -6   9-50.1076 581.525   6
  10  -5  -6 22815.6 2585.25   6
  10  -5  -5 20.8333 497.353   6
  10  -5  -4 9438.31 1655.74   6
  10  -5  -3 3410.05 1069.20   6
  10  -5  -2 6194.87 1350.85   6
  10  -5  -1 25857.2 2642.91   6
  10  -5   0 323.822 459.584   6
  10  -5   1 19098.6 2251.02   6
  10  -5   2 15926.7 2037.76   6
  10  -5   3 20139.1 2270.48   6
  10  -5   4 18337.8 2208.20   6
  10  -5   5 13857.7 1930.93   6
  10  -5   6 19696.7 2260.77   6
  10  -5   7-236.421 539.104   6
  10  -5   8 13029.3 1869.14   6
  10  -5   9 7262.91 1487.82   6
  10  -5  10 13857.8 2017.86   6
  10  -5  11 8776.01 1616.60   6
  10  -4  -7 5961.84 1340.74   6
  10  -4  -6 1575.63 772.413   6
  10  -4  -5 16817.2 2091.73   6
  10  -4  -4 198.305 467.675   6
  10  -4  -3 11901.8 1750.52   6
  10  -4  -2 4740.68 1169.78   6
  10  -4  -1 26061.1 2554.34   6
  10  -4   0 21297.7 2268.10   6
  10  -4   1 20077.6 2233.37   6
  10  -4   2 25477.6 2480.70   6
  10  -4   3 1124.28 509.509   6
  10  -4   4 31114.1 2750.98   6
  10  -4   5 828.349 411.600   6
  10  -4   6 21377.3 2274.04   6
  10  -4   7 9836.91 1538.26   6
  10  -4   8 6613.92 1301.91   6
  10  -4   9 10230.0 1630.55   6
  10  -4  10-57.1517 346.194   6
  10  -4  11 24838.3 2632.23   6
  10  -4  12 3648.74 1134.48   4
  10  -4  13 10551.6 1827.18   4
  10  -3  -9 7087.17 1479.49   6
  10  -3  -8-25.2306 554.004   6
  10  -3  -7 12320.3 1821.10   6
  10  -3  -6 3615.09 1024.74   6
  10  -3  -5 34108.9 2921.09   6
  10  -3  -4 7193.02 1354.35   6
  10  -3  -3 19424.7 2166.33   6
  10  -3  -2 10258.5 1561.00   6
  10  -3  -1 3125.62 935.309   6
  10  -3   0 23173.2 2304.84   6
  10  -3   1-75.2055 465.967   6
  10  -3   2 18931.7 2059.05   6
  10  -3   3 20718.8 2142.90   6
  10  -3   4 24375.7 2310.11   6
  10  -3   5 13607.5 1724.77   6
  10  -3   6 3955.18 968.083   6
  10  -3   7 16168.7 1921.60   6
  10  -3   8 1746.45 747.584   6
  10  -3   9 19308.4 2160.11   6
  10  -3  10 13905.4 1866.95   6
  10  -3  11 13982.9 1917.55   4
  10  -3  11 14248.2 1932.34   6
  10  -3  12 8441.33 1563.59   4
  10  -3  13 303.435 575.168   4
  10  -3  14 17088.5 2270.11   4
  10  -3  15 3102.15 1042.14   4
  10  -2 -10-450.903 535.140   6
  10  -2  -9 15277.5 2038.28   6
  10  -2  -8 2044.50 840.517   6
  10  -2  -7 12593.0 1747.94   6
  10  -2  -6 16436.1 2000.55   6
  10  -2  -5 8038.01 1353.46   6
  10  -2  -4 21287.5 2167.53   6
  10  -2  -3-28.2833 492.855   6
  10  -2  -2 27172.1 2399.50   6
  10  -2  -1 10946.3 1491.14   6
  10  -2   0 16821.7 1860.10   6
  10  -2   1 17592.7 1907.06   6
  10  -2   2 7555.74 1267.02   6
  10  -2   3 20169.0 2009.91   6
  10  -2   4-194.685 454.739   6
  10  -2   5 37192.7 2743.43   6
  10  -2   6 725.200 341.921   6
  10  -2   7 33992.2 2674.99   6
  10  -2   8 10352.6 1490.37   6
  10  -2   9 6331.33 1193.29   6
  10  -2  10 15795.0 1908.94   6
  10  -2  11 2807.10 895.214   4
  10  -2  12 15946.1 2033.45   4
  10  -2  13 13400.6 1893.66   4
  10  -2  14 10830.0 1753.87   4
  10  -2  15 40066.3 3462.32   4
  10  -2  16-429.566 676.677   4
  10  -1 -11 11689.3 1764.41   6
  10  -1 -10 2772.71 893.891   6
  10  -1  -9 14231.2 1889.44   6
  10  -1  -8 12965.9 1750.43   6
  10  -1  -7 1021.64 558.827   6
  10  -1  -6 28305.2 2475.83   6
  10  -1  -5 6257.39 1208.06   6
  10  -1  -4 27156.9 2345.78   6
  10  -1  -3 13385.4 1598.76   6
  10  -1  -2 12530.9 1574.65   6
  10  -1  -1 30594.1 2416.87   6
  10  -1   0 2482.83 723.790   6
  10  -1   1 30403.3 2373.81   6
  10  -1   2 84.3862 456.068   6
  10  -1   3 30926.0 2379.87   6
  10  -1   4 11043.2 1407.27   6
  10  -1   5 13991.8 1622.13   6
  10  -1   6 13072.7 1569.06   6
  10  -1   7 1204.83 590.244   6
  10  -1   8 17043.4 1850.79   6
  10  -1   9 11495.9 1533.42   6
  10  -1  10 23837.9 2308.93   4
  10  -1  10 26352.7 2391.94   6
  10  -1  11 40729.8 3096.65   4
  10  -1  12 1876.64 708.708   4
  10  -1  13 26368.2 2594.52   4
  10  -1  14-344.870 415.027   4
  10  -1  15 21672.3 2479.73   4
  10  -1  16 5651.87 1341.67   4
  10  -1  17 7313.12 1535.10   4
  10   0 -12 6396.65 1334.84   6
  10   0 -11 3998.02 1048.91   6
  10   0 -10 14704.5 1904.67   6
  10   0  -9 356.116 423.980   6
  10   0  -8 25988.4 2391.05   6
  10   0  -7 4268.83 987.218   6
  10   0  -6 21420.2 2068.75   6
  10   0  -5 25154.9 2193.46   6
  10   0  -4 2425.80 732.811   6
  10   0  -3 22475.8 1997.53   6
  10   0  -2 142.850 408.096   6
  10   0  -1 32778.3 2382.72   6
  10   0   0 6729.24 1091.17   6
  10   0   1 18160.9 1750.15   6
  10   0   2 29347.4 2215.63   6
  10   0   3 5948.10 1019.66   6
  10   0   4 24094.2 2022.83   6
  10   0   5 4506.54 889.063   6
  10   0   6 16501.2 1674.95   6
  10   0   7 22743.6 1994.42   6
  10   0   8 11047.7 1429.78   6
  10   0   9 38346.9 2727.17   6
  10   0  10 6674.94 1182.30   4
  10   0  11 24126.8 2313.96   4
  10   0  12 3351.47 882.180   4
  10   0  13 12918.4 1770.15   4
  10   0  14 7470.23 1416.53   4
  10   0  15 1527.28 663.494   4
  10   0  16 23306.8 2544.06   4
  10   0  17 357.608 534.339   4
  10   0  18 18575.4 2362.30   4
  10   1  -9 8921.75 1392.71   6
  10   1  -8 5176.31 1062.98   6
  10   1  -7 25297.8 2226.48   6
  10   1  -6 914.686 503.854   6
  10   1  -5 27171.3 2189.68   6
  10   1  -4 2677.51 735.709   6
  10   1  -3 16129.6 1628.65   6
  10   1  -2 26153.8 2040.85   6
  10   1  -1 5077.05 903.240   6
  10   1   0 47664.9 2733.54   6
  10   1   1 414.344 311.220   6
  10   1   2 34618.9 2273.46   6
  10   1   3 11484.7 1282.94   6
  10   1   4 28208.6 2040.82   6
  10   1   5 23666.4 1881.57   6
  10   1   6 1051.65 461.339   6
  10   1   7 24629.4 1984.11   6
  10   1   8 3308.88 784.304   6
  10   1   9 19244.4 1882.26   4
  10   1  10 4194.03 927.155   4
  10   1  11 12778.6 1644.97   4
  10   1  12 20540.6 2102.56   4
  10   1  13 6504.90 1276.55   4
  10   1  14 19096.8 2137.17   4
  10   1  15 825.980 590.952   4
  10   1  16 4252.26 1071.16   4
  10   1  17 4904.33 1221.24   4
  10   1  18 3344.71 958.063   4
  10   2  -3 3175.62 679.758   6
  10   2  -2 37384.6 2328.14   6
  10   2  -1 5475.29 898.496   6
  10   2   0 32096.6 2094.60   6
  10   2   1 15281.5 1408.02   6
  10   2   2 13486.6 1320.15   6
  10   2   3 39463.1 2283.87   6
  10   2   4 1041.15 422.444   6
  10   2   5 24041.5 1803.32   6
  10   2   6 5157.52 854.047   6
  10   2   7 2744.66 654.796   6
  10   2   8 22275.9 1909.77   4
  10   2   9 4486.08 886.297   4
  10   2  10 11344.0 1434.20   4
  10   2  11 517.939 460.400   4
  10   2  12 16625.0 1837.61   4
  10   2  13 710.966 448.723   4
  10   2  14 15050.5 1844.31   4
  10   2  15 18593.3 2097.39   4
  10   2  16 863.117 617.879   4
  10   2  17 32103.1 2914.97   4
  10   2  18 2401.30 836.806   4
  10   2  19 31401.0 3002.82   4
  10   3   7 1233.50 421.452   4
  10   3   8 39967.3 2487.63   4
  10   3   9 6059.50 1002.61   4
  10   3  10 26187.6 2132.13   4
  10   3  11 8176.28 1206.35   4
  10   3  12 11674.7 1499.75   4
  10   3  13 21013.7 2055.65   4
  10   3  14-204.975 378.443   4
  10   3  15 37906.9 2913.53   4
  10   3  16 7235.37 1281.55   4
  10   3  17 10593.3 1669.23   4
  10   3  18 4410.82 1102.00   4
  10   3  19 3055.94 944.000   4
  10   4  10 2158.80 634.404   4
  10   4  11 18636.7 1761.14   4
  10   4  12 3819.44 821.731   4
  10   4  13 17740.2 1810.05   4
  10   4  14 8891.74 1330.71   4
  10   4  15 4278.52 968.000   4
  10   4  16 6029.68 1203.57   4
  10   4  17 428.617 432.328   4
  10   4  18 19309.5 2157.98   4
  10   4  19 1101.01 555.751   4
  10   6   4-278.020 441.910   2
  10   6   5 19589.5 1660.36   2
  10   6   6 7009.19 989.761   2
  10   7  -4 14399.9 1699.81   2
  10   7  -3 10793.7 1464.32   2
  10   7  -2 8160.17 1296.76   2
  10   7  -1 10304.6 1427.52   2
  10   7   0 2982.79 752.959   2
  10   7   1 30398.3 2327.82   2
  10   7   2 270.699 375.099   2
  10   7   3 16866.3 1694.15   2
  10   7   4 12580.8 1439.86   2
  10   7   5 2231.92 620.287   2
  10   7   6 21190.9 1859.73   2
  10   7   7 120.856 293.016   2
  10   8  -6 10668.2 1609.74   2
  10   8  -5 266.273 400.845   2
  10   8  -4 4565.37 1079.02   2
  10   8  -3 25420.7 2371.99   2
  10   8  -2 1010.01 446.402   2
  10   8  -1 9426.76 1427.35   2
  10   8   0 5282.34 1079.45   2
  10   8   1 7370.65 1222.08   2
  10   8   2 20353.7 1997.47   2
  10   8   3 236.469 370.205   2
  10   8   4 30837.4 2410.11   2
  10   8   5 1021.68 520.569   2
  10   8   6 24449.5 2115.02   2
  10   8   7 4568.38 914.342   2
  10   8   8 12320.7 1502.61   2
  10   8  15 4627.55 1123.07   5
  10   8  16 10483.4 1608.39   5
  10   9  -6 2394.38 765.562   2
  10   9  -5 3868.71 1001.27   2
  10   9  -4 206.627 474.459   2
  10   9  -3 9354.39 1533.78   2
  10   9  -2 10847.4 1699.97   2
  10   9  -1-62.0276 387.506   2
  10   9   0 26035.8 2445.22   2
  10   9   1 293.647 507.399   2
  10   9   2 31432.0 2634.50   2
  10   9   3 41.4302 563.962   2
  10   9   4 5529.52 1100.38   2
  10   9   5 10581.2 1499.30   2
  10   9   6 2367.20 696.505   2
  10   9   7 15491.4 1787.21   2
  10   9   8-277.071 472.193   2
  10   9  13 8934.75 1566.85   5
  10   9  14 18859.9 2259.30   5
  10   9  15-204.846 447.749   5
  10  10  -4 11906.3 1875.45   2
  10  10  -3 940.320 767.019   2
  10  10  -2 15865.7 2065.04   2
  10  10  -1 605.308 677.405   2
  10  10   0 9953.79 1610.74   2
  10  10   1 4385.79 1095.35   2
  10  10   2 931.419 546.344   2
  10  10   3 27630.5 2578.83   2
  10  10   4 597.272 470.476   2
  10  10   5 19441.5 2131.60   2
  10  10   6-876.640 672.422   2
  10  10   7 13088.4 1738.44   2
  10  10   8 933.263 535.298   2
  10  10   9 6781.20 1268.96   2
  10  10   9 6282.21 1314.32   5
  10  10  10 11905.7 1841.13   5
  10  11   0 4026.62 1168.13   2
  10  11   1 12230.0 1863.63   2
  10  11   2-355.005 768.017   2
  10  11   3 11864.4 1800.12   2
  10  11   4 178.909 544.698   2
  10  11   5 5750.11 1254.14   2
  10  11   6 7185.69 1345.42   2
  10  11   7-936.699 634.390   2
  10  11   8 12915.8 1810.77   2
  10  11   9 4574.11 1040.19   2
  11  -5  -1 3472.55 1080.95   6
  11  -5   0 16265.2 2176.95   6
  11  -5   1 927.481 678.194   6
  11  -5   2 12227.3 1930.94   6
  11  -5   3 13754.5 1954.92   6
  11  -5   4 1580.89 783.009   6
  11  -5   5 25011.1 2663.88   6
  11  -5   6 5503.10 1281.18   6
  11  -5   7 15884.2 2152.09   6
  11  -5   8 11176.4 1877.99   6
  11  -4  -4 21666.1 2505.83   6
  11  -4  -3-191.911 535.769   6
  11  -4  -2 10655.0 1764.19   6
  11  -4  -1 11068.3 1771.43   6
  11  -4   0 4506.58 1202.23   6
  11  -4   1 12508.5 1847.57   6
  11  -4   2-184.808 559.394   6
  11  -4   3 25442.6 2582.96   6
  11  -4   4 5516.41 1288.48   6
  11  -4   5 24136.3 2536.23   6
  11  -4   6 4183.61 1070.47   6
  11  -4   7 6816.91 1410.79   6
  11  -4   8 9592.72 1646.66   6
  11  -4   9 528.748 467.342   6
  11  -4  10 23629.8 2632.08   6
  11  -4  11 1396.87 766.459   6
  11  -3  -6 19325.5 2318.44   6
  11  -3  -5 7007.46 1425.35   6
  11  -3  -4 21777.0 2402.43   6
  11  -3  -3 7946.31 1463.92   6
  11  -3  -2 1031.54 616.347   6
  11  -3  -1 19916.0 2251.45   6
  11  -3   0 2480.93 785.229   6
  11  -3   1 17779.8 2075.89   6
  11  -3   2 6564.67 1245.17   6
  11  -3   3 5429.67 1151.26   6
  11  -3   4 5725.64 1219.96   6
  11  -3   5 1102.17 520.540   6
  11  -3   6 22542.6 2371.27   6
  11  -3   7 518.337 498.708   6
  11  -3   8 31194.3 2822.23   6
  11  -3   9 16395.8 2066.21   6
  11  -3  10 5060.78 1165.86   6
  11  -3  11 16385.3 2156.63   4
  11  -3  11 11335.0 1794.13   6
  11  -3  12 436.188 474.488   4
  11  -2  -8 16353.9 2113.44   6
  11  -2  -7 8797.54 1548.14   6
  11  -2  -6 3214.88 933.931   6
  11  -2  -5 14126.9 1900.04   6
  11  -2  -4 157.545 429.375   6
  11  -2  -3 24092.3 2413.16   6
  11  -2  -2 2976.92 907.149   6
  11  -2  -1 13318.1 1847.17   6
  11  -2   0 14856.0 1841.35   6
  11  -2   1 3122.54 850.188   6
  11  -2   2 18409.1 2016.58   6
  11  -2   3 307.526 404.008   6
  11  -2   4 26202.7 2409.63   6
  11  -2   5 3598.89 898.638   6
  11  -2   6 18300.6 2007.00   6
  11  -2   7 6949.58 1250.77   6
  11  -2   8 4759.05 1134.61   6
  11  -2   9 24440.6 2440.49   6
  11  -2  10-92.2206 536.029   6
  11  -2  11 25004.3 2596.21   4
  11  -2  12 326.533 570.324   4
  11  -2  13 8716.35 1581.90   4
  11  -2  14 5833.27 1352.81   4
  11  -1  -9 7730.12 1454.54   6
  11  -1  -8 1273.34 601.479   6
  11  -1  -7 23518.9 2416.99   6
  11  -1  -6 2428.73 859.898   6
  11  -1  -5 28908.5 2585.53   6
  11  -1  -4 9968.72 1498.96   6
  11  -1  -3 7204.21 1259.23   6
  11  -1  -2 25070.5 2354.55   6
  11  -1  -1 1551.00 700.161   6
  11  -1   0 25814.7 2329.40   6
  11  -1   1 519.907 394.573   6
  11  -1   2 24103.0 2222.92   6
  11  -1   3 10657.7 1491.28   6
  11  -1   4 4491.31 1001.24   6
  11  -1   5 13198.9 1654.85   6
  11  -1   6-87.4651 415.803   6
  11  -1   7 23404.4 2225.83   6
  11  -1   8 72.2999 367.262   6
  11  -1   9 36495.7 2878.97   6
  11  -1  10 6893.62 1311.62   6
  11  -1  11 7001.51 1367.44   4
  11  -1  12 23616.0 2493.05   4
  11  -1  13 338.423 409.354   4
  11  -1  14 15212.2 2100.66   4
  11  -1  15 2619.69 966.031   4
  11   0  -7 13206.2 1775.38   6
  11   0  -6 14075.2 1785.94   6
  11   0  -5 1747.49 727.127   6
  11   0  -4 22492.1 2154.45   6
  11   0  -3 207.811 366.452   6
  11   0  -2 19304.8 1960.08   6
  11   0  -1 4795.92 1006.58   6
  11   0   0 18418.0 1894.18   6
  11   0   1 21198.2 1987.62   6
  11   0   2 6125.73 1082.64   6
  11   0   3 30426.1 2382.34   6
  11   0   4 681.016 420.808   6
  11   0   5 25019.0 2160.86   6
  11   0   6 10346.8 1411.91   6
  11   0   7 6873.03 1167.92   6
  11   0   8 43982.9 2989.64   6
  11   0   9 2739.30 815.457   6
  11   0  10 29735.2 2622.66   4
  11   0  11 803.520 465.255   4
  11   0  12 18310.2 2113.61   4
  11   0  13 7283.24 1419.29   4
  11   0  14 2036.28 775.999   4
  11   0  15 9602.96 1673.76   4
  11   0  16-90.2834 595.246   4
  11   1  -2 4199.86 938.647   6
  11   1  -1 32231.4 2403.94   6
  11   1   0 513.305 383.480   6
  11   1   1 35998.0 2475.68   6
  11   1   2 4949.70 920.173   6
  11   1   3 28220.7 2163.28   6
  11   1   4 36867.1 2480.92   6
  11   1   5 6282.07 1020.33   6
  11   1   6 31417.6 2323.44   6
  11   1   7 2464.98 713.919   6
  11   1   8 20149.0 1917.49   6
  11   1   9 9270.92 1381.97   4
  11   1  10 18398.1 1978.18   4
  11   1  11 5035.34 1037.71   4
  11   1  12 4999.92 1123.34   4
  11   1  13 25513.8 2497.32   4
  11   1  14-353.225 555.428   4
  11   1  15 4774.49 1154.69   4
  11   1  16 5621.09 1333.02   4
  11   1  17 6979.69 1425.21   4
  11   2   8 1537.64 614.683   4
  11   2   9 28182.3 2336.28   4
  11   2  10 780.827 409.571   4
  11   2  11 13837.8 1699.49   4
  11   2  12 3283.84 917.180   4
  11   2  13 8824.41 1459.47   4
  11   2  14 12130.7 1712.44   4
  11   2  15 164.244 392.128   4
  11   2  16 16242.4 2067.09   4
  11   2  17-223.898 426.502   4
  11   3   8 3105.05 718.723   4
  11   3   9 8951.29 1262.47   4
  11   3  10 7046.85 1163.73   4
  11   3  11 5365.36 1072.99   4
  11   3  12 16506.5 1851.92   4
  11   3  13 977.049 599.708   4
  11   3  14 35721.9 2846.97   4
  11   3  15 1939.16 690.815   4
  11   3  16 10864.8 1658.09   4
  11   3  17 4517.33 1084.34   4
  11   3  18 2303.29 904.957   4
  12  -4   2 21449.6 2504.10   6
  12  -4   3 2552.60 874.989   6
  12  -4   4 17164.3 2228.69   6
  12  -4   5 3916.86 1102.27   6
  12  -4   6 4163.91 1137.65   6
  12  -3  -2 27143.6 2801.34   6
  12  -3  -1 683.778 649.968   6
  12  -3   0 24425.5 2597.82   6
  12  -3   1 9639.26 1621.80   6
  12  -3   2 4744.19 1141.35   6
  12  -3   3 9695.43 1645.26   6
  12  -3   4-699.536 677.483   6
  12  -3   5 10845.5 1702.26   6
  12  -3   6 226.709 577.415   6
  12  -3   7 25776.6 2642.53   6
  12  -3   8 4691.15 1218.79   6
  12  -3   9 5517.52 1318.97   6
  12  -3  10 15506.1 2143.40   6
  12  -2  -5 29.6385 568.940   6
  12  -2  -4 20190.1 2352.78   6
  12  -2  -3 4478.68 1143.78   6
  12  -2  -2 10985.9 1705.61   6
  12  -2  -1 14274.1 1946.18   6
  12  -2   0 1459.34 592.730   6
  12  -2   1 14611.8 1926.91   6
  12  -2   2 403.930 447.299   6
  12  -2   3 22364.9 2327.20   6
  12  -2   4 2850.46 843.733   6
  12  -2   5 14132.4 1858.92   6
  12  -2   6 16856.8 2034.00   6
  12  -2   7 2401.93 839.487   6
  12  -2   8 25126.3 2535.59   6
  12  -2   9-334.467 653.534   6
  12  -2  10 24295.8 2587.12   6
  12  -2  11 1975.90 818.832   4
  12  -1  -6 12668.9 1832.04   6
  12  -1  -5 5578.88 1248.23   6
  12  -1  -4 3033.19 887.579   6
  12  -1  -3 11714.5 1745.95   6
  12  -1  -2 641.100 547.414   6
  12  -1  -1 17984.0 2062.42   6
  12  -1   0 693.296 614.886   6
  12  -1   1 25823.7 2412.47   6
  12  -1   2 12453.4 1691.36   6
  12  -1   3 4512.84 1042.20   6
  12  -1   4 22400.4 2239.61   6
  12  -1   5-79.3608 435.113   6
  12  -1   6 13505.0 1781.04   6
  12  -1   7 2748.92 826.219   6
  12  -1   8 10792.4 1580.37   6
  12  -1   9 7513.13 1395.60   6
  12  -1  10 8123.51 1453.17   6
  12  -1  10 9334.25 1589.42   4
  12  -1  11 12336.5 1840.75   4
  12  -1  12-622.152 508.174   4
  12  -1  13 14044.2 2074.97   4
  12   0  -1 2980.53 840.675   6
  12   0   0 26952.6 2394.74   6
  12   0   1 1859.59 700.721   6
  12   0   2 24874.2 2280.94   6
  12   0   3 1465.43 643.056   6
  12   0   4 25880.5 2296.32   6
  12   0   5 5683.99 1163.63   6
  12   0   6 6400.85 1179.20   6
  12   0   7 18527.3 2002.14   6
  12   0   8-204.390 479.138   6
  12   0   9 35107.1 2830.85   6
  12   0  10 186.902 332.743   4
  12   0  11 15470.6 2003.96   4
  12   0  12 8203.02 1483.99   4
  12   0  13 1517.35 739.765   4
  12   0  14 18227.7 2298.73   4
  12   1   9 13356.8 1736.18   4
  12   1  10 17725.2 2034.15   4
  12   1  11 5091.40 1145.76   4
  12   1  12 20947.1 2272.00   4
  12   1  13 196.531 600.312   4
  12   1  14 10985.4 1737.52   4
  12   1  15 2942.93 903.885   4
  12   2   8 20326.3 2016.02   4
  12   2   9 40.4252 536.697   4
  12   2  10 22504.3 2215.79   4
  12   2  11 3048.52 891.830   4
  12   2  12 13275.7 1780.26   4
  12   2  13 17686.4 2092.16   4
  12   2  14 3324.73 854.938   4
  12   2  15 16687.0 2092.91   4
  12   2  16 968.094 617.230   4
  13  -2   0 15079.3 2018.54   6
  13  -2   1-177.284 703.437   6
  13  -2   2 16695.4 2126.36   6
  13  -2   3 1893.64 816.686   6
  13  -2   4 9719.13 1620.40   6
  13  -2   5 5029.08 1128.21   6
  13  -2   6 2093.13 848.411   6
  13  -2   7 12494.7 1864.79   6
  13  -2   8 199.915 642.022   6
  13  -1   2 25016.3 2494.89   6
  13  -1   3 4548.06 1063.25   6
  13  -1   4-955.632 610.948   6
  13  -1   5 6752.43 1336.23   6
  13  -1   6 2168.94 736.484   6
  13  -1   7 411.940 498.308   6
  13  -1   8 20604.2 2335.34   6
  13  -1   9 1268.19 647.744   6
  13   0  10 16886.7 2113.35   4
  13   0  11 6049.07 1349.57   4
  13   1   9 18481.4 2117.72   4
  13   1  10 5007.18 1128.90   4
  13   1  11 17590.9 2150.87   4
  13   1  12-136.545 406.786   4
  13   1  13 9653.25 1655.12   4
   0   0   0    0.00    0.00   0
TITL EG24_100 in P1
REM P1 (#1 in standard setting)
CELL 0.71073   9.584433   9.971926  15.936759  84.7708  76.6655  79.9501
ZERR    2.00   0.000318   0.000324   0.000531   0.0027   0.0028   0.0027
LATT -1
SFAC C H N O Dy
UNIT 60.00 66.00 4.00 16.00 2.00
TREF
HKLF 4
END
;
_shelx_hkl_checksum              48830

