####################################################################### 
# 
# This file contains crystal structure data downloaded from the 
# Cambridge Structural Database (CSD) hosted by the Cambridge 
# Crystallographic Data Centre (CCDC).
# 
# Full information about CCDC data access policies and citation 
# guidelines are available at http://www.ccdc.cam.ac.uk/access/V1 
# 
# Audit and citation data items may have been added by the CCDC. 
# Please retain this information to preserve the provenance of 
# this file and to allow appropriate attribution of the data. 
# 
#######################################################################

data_EG23p_150
_audit_block_doi                 10.5517/ccdc.csd.cc2d6r2g
_database_code_depnum_ccdc_archive 'CCDC 2211015'
loop_
_citation_id
_citation_doi
_citation_year
1 10.3390/magnetochemistry8110151 2022
loop_
_audit_author_name
_audit_author_address
'Gennadii Shilov'
;Institute of Problems of Chemical Physics
Russia
;
_audit_update_record             
;
2022-10-04 deposited with the CCDC.	2023-11-16 downloaded from the CCDC.
;

_audit_creation_method           SHELXL-2017/1
_shelx_SHELXL_version_number     2017/1
_chemical_name_systematic        ?
_chemical_name_common            ?
_chemical_melting_point          ?
_chemical_formula_moiety         ?
_chemical_formula_sum            'C29 H27 Dy N3 O8'
_chemical_formula_weight         708.03

loop_
_atom_type_symbol
_atom_type_description
_atom_type_scat_dispersion_real
_atom_type_scat_dispersion_imag
_atom_type_scat_source
C C 0.0033 0.0016 'International Tables Vol C Tables 4.2.6.8 and 6.1.1.4'
H H 0.0000 0.0000 'International Tables Vol C Tables 4.2.6.8 and 6.1.1.4'
N N 0.0061 0.0033 'International Tables Vol C Tables 4.2.6.8 and 6.1.1.4'
O O 0.0106 0.0060 'International Tables Vol C Tables 4.2.6.8 and 6.1.1.4'
Dy Dy -0.1892 4.4098 'International Tables Vol C Tables 4.2.6.8 and 6.1.1.4'

_space_group_crystal_system      triclinic
_space_group_IT_number           2
_space_group_name_H-M_alt        'P -1'
_space_group_name_Hall           '-P 1'

_shelx_space_group_comment       
;
The symmetry employed for this shelxl refinement is uniquely defined
by the following loop, which should always be used as a source of
symmetry information in preference to the above space-group names.
They are only intended as comments.
;

loop_
_space_group_symop_operation_xyz
'x, y, z'
'-x, -y, -z'

_cell_length_a                   9.5998(10)
_cell_length_b                   9.6354(9)
_cell_length_c                   16.1461(8)
_cell_angle_alpha                104.794(6)
_cell_angle_beta                 94.535(6)
_cell_angle_gamma                90.536(8)
_cell_volume                     1438.8(2)
_cell_formula_units_Z            2
_cell_measurement_temperature    150(1)
_cell_measurement_reflns_used    3814
_cell_measurement_theta_min      2.8177
_cell_measurement_theta_max      29.1250

_exptl_crystal_description       plate
_exptl_crystal_colour            ?
_exptl_crystal_density_meas      ?
_exptl_crystal_density_method    ?
_exptl_crystal_density_diffrn    1.634
_exptl_crystal_F_000             704
_exptl_transmission_factor_min   ?
_exptl_transmission_factor_max   ?
_exptl_crystal_size_max          0.22
_exptl_crystal_size_mid          0.12
_exptl_crystal_size_min          0.07
_exptl_absorpt_coefficient_mu    2.651
_exptl_absorpt_correction_T_min  0.82685
_exptl_absorpt_correction_T_max  1.00000
_exptl_absorpt_correction_type   multi-scan
_exptl_absorpt_process_details   
;
CrysAlisPro, Agilent Technologies,
Version 1.171.36.20 (release 27-06-2012 CrysAlis171 .NET)
(compiled Jul 11 2012,15:38:31)
Empirical absorption correction using spherical harmonics,
 implemented in SCALE3 ABSPACK scaling algorithm.
;
_diffrn_ambient_temperature      150.01(10)
_diffrn_radiation_wavelength     0.7107
_diffrn_radiation_type           'Mo K\a'
_diffrn_radiation_source         'Enhance (Mo) X-ray Source'
_diffrn_radiation_monochromator  graphite
_diffrn_measurement_device_type  'Xcalibur, Eos'
_diffrn_detector_area_resol_mean 16.2060
_diffrn_reflns_number            10211
_diffrn_reflns_av_unetI/netI     0.0947
_diffrn_reflns_av_R_equivalents  0.0610
_diffrn_measurement_method       '\w scans'
_diffrn_reflns_limit_h_min       -11
_diffrn_reflns_limit_h_max       11
_diffrn_reflns_limit_k_min       -11
_diffrn_reflns_limit_k_max       8
_diffrn_reflns_limit_l_min       -19
_diffrn_reflns_limit_l_max       19
_diffrn_reflns_theta_min         2.823
_diffrn_reflns_theta_max         26.064
_diffrn_reflns_theta_full        25.242
_diffrn_measured_fraction_theta_max 0.997
_diffrn_measured_fraction_theta_full 0.997
_diffrn_reflns_Laue_measured_fraction_max 0.997
_diffrn_reflns_Laue_measured_fraction_full 0.997
_diffrn_reflns_point_group_measured_fraction_max 0.997
_diffrn_reflns_point_group_measured_fraction_full 0.997
_reflns_number_total             5676
_reflns_number_gt                4658
_reflns_threshold_expression     'I > 2\s(I)'
_reflns_Friedel_coverage         0.000
_reflns_Friedel_fraction_max     .
_reflns_Friedel_fraction_full    .

_reflns_special_details          
;
 Reflections were merged by SHELXL according to the crystal
 class for the calculation of statistics and refinement.
 
 _reflns_Friedel_fraction is defined as the number of unique
 Friedel pairs measured divided by the number that would be
 possible theoretically, ignoring centric projections and
 systematic absences.
;

_computing_data_collection       
'CrysAlisPro 1.171.36.20 (Agilent Technologies, 2012)'
_computing_cell_refinement       
'CrysAlisPro 1.171.36.20 (Agilent Technologies, 2012)'
_computing_data_reduction        
'CrysAlisPro 1.171.36.20 (Agilent Technologies, 2012)'
_computing_structure_solution    'SHELXS-2013/1 (Sheldrick, 2008)'
_computing_structure_refinement  'SHELXL-2017/1 (Sheldrick, 2017)'
_computing_molecular_graphics    ?
_computing_publication_material  ?
_refine_special_details          ?
_refine_ls_structure_factor_coef Fsqd
_refine_ls_matrix_type           full
_refine_ls_weighting_scheme      calc
_refine_ls_weighting_details     
'w=1/[\s^2^(Fo^2^)+(0.0595P)^2^+100.5876P] where P=(Fo^2^+2Fc^2^)/3'
_atom_sites_solution_primary     ?
_atom_sites_solution_secondary   ?
_atom_sites_solution_hydrogens   geom
_refine_ls_hydrogen_treatment    constr
_refine_ls_extinction_method     none
_refine_ls_extinction_coef       .
_refine_ls_number_reflns         5676
_refine_ls_number_parameters     371
_refine_ls_number_restraints     6
_refine_ls_R_factor_all          0.1247
_refine_ls_R_factor_gt           0.1080
_refine_ls_wR_factor_ref         0.2906
_refine_ls_wR_factor_gt          0.2836
_refine_ls_goodness_of_fit_ref   1.181
_refine_ls_restrained_S_all      1.181
_refine_ls_shift/su_max          0.001
_refine_ls_shift/su_mean         0.000

loop_
_atom_site_label
_atom_site_type_symbol
_atom_site_fract_x
_atom_site_fract_y
_atom_site_fract_z
_atom_site_U_iso_or_equiv
_atom_site_adp_type
_atom_site_occupancy
_atom_site_site_symmetry_order
_atom_site_calc_flag
_atom_site_refinement_flags_posn
_atom_site_refinement_flags_adp
_atom_site_refinement_flags_occupancy
_atom_site_disorder_assembly
_atom_site_disorder_group
Dy1 Dy 0.43340(9) 0.27846(9) 0.22978(6) 0.0214(3) Uani 1 1 d . . . . .
O1 O 0.2425(14) 0.3598(13) 0.1620(8) 0.028(3) Uani 1 1 d . . . . .
O2 O 0.2631(12) 0.0956(13) 0.2022(9) 0.029(3) Uani 1 1 d . . . . .
O6 O 0.5483(13) 0.0795(12) 0.1611(8) 0.025(3) Uani 1 1 d . . . . .
O4 O 0.5108(13) 0.1805(13) 0.3410(9) 0.028(3) Uani 1 1 d . . . . .
N1 N 0.4927(13) 0.5518(14) 0.2669(9) 0.016(3) Uani 1 1 d . . . . .
O3 O 0.3125(14) 0.3879(13) 0.3479(8) 0.030(3) Uani 1 1 d . . . . .
N2 N 0.6926(15) 0.3618(15) 0.2770(10) 0.023(3) Uani 1 1 d . . . . .
O5 O 0.5211(14) 0.3365(15) 0.1127(8) 0.031(3) Uani 1 1 d . . . . .
C7 C 0.045(2) 0.394(2) 0.0731(15) 0.041(5) Uani 1 1 d . . . . .
H7A H -0.034984 0.338590 0.042780 0.062 Uiso 1 1 calc R U . . .
H7B H 0.015516 0.477008 0.114199 0.062 Uiso 1 1 calc R U . . .
H7C H 0.099417 0.424751 0.033024 0.062 Uiso 1 1 calc R U . . .
O8 O 1.0415(13) 0.7118(16) 0.2782(10) 0.039(4) Uani 1 1 d . . . . .
O7 O 0.8432(16) 0.9181(15) 0.2919(11) 0.043(4) Uani 1 1 d . . . . .
C13 C 0.512(2) 0.2189(18) 0.4229(12) 0.028(4) Uani 1 1 d . . . . .
C15 C 0.7349(18) 0.4935(18) 0.2795(11) 0.020(4) Uani 1 1 d . . . . .
C16 C 0.6278(17) 0.602(2) 0.2746(11) 0.022(4) Uani 1 1 d . . . . .
C17 C 0.326(2) 0.400(2) 0.4273(12) 0.029(4) Uani 1 1 d . . . . .
C18 C 0.7894(18) 0.2635(19) 0.2858(12) 0.025(4) Uani 1 1 d . . . . .
H18A H 0.759293 0.171232 0.285138 0.030 Uiso 1 1 calc R U . . .
C20 C 0.646(2) 0.367(3) -0.0027(15) 0.044(6) Uani 1 1 d . . . . .
H20A H 0.710197 0.314436 -0.040727 0.066 Uiso 1 1 calc R U . . .
H20B H 0.564064 0.386004 -0.035723 0.066 Uiso 1 1 calc R U . . .
H20C H 0.689999 0.456938 0.029668 0.066 Uiso 1 1 calc R U . . .
C21 C 0.5568(18) 0.8398(19) 0.2737(12) 0.024(4) Uani 1 1 d . . . . .
H21A H 0.578068 0.935300 0.276470 0.029 Uiso 1 1 calc R U . . .
C22 C 0.8784(18) 0.5338(19) 0.2873(12) 0.023(4) Uani 1 1 d . . . . .
C23 C 0.0874(19) 0.1649(19) 0.1102(12) 0.025(4) Uani 1 1 d . . . . .
H23A H 0.007104 0.132222 0.074011 0.031 Uiso 1 1 calc R U . . .
C25 C 0.1326(19) 0.305(3) 0.1187(12) 0.033(5) Uani 1 1 d . . . . .
C26 C 0.6608(18) 0.7437(17) 0.2780(11) 0.020(3) Uani 1 1 d . . . . .
C27 C 0.9295(18) 0.2958(18) 0.2955(13) 0.026(4) Uani 1 1 d . . . . .
H27A H 0.993545 0.226319 0.301277 0.031 Uiso 1 1 calc R U . . .
C28 C 0.9751(19) 0.433(2) 0.2967(12) 0.026(4) Uani 1 1 d . . . . .
H28A H 1.070140 0.456917 0.303836 0.031 Uiso 1 1 calc R U . . .
C29 C 0.4187(19) 0.7890(19) 0.2650(12) 0.025(4) Uani 1 1 d . . . . .
H29A H 0.345346 0.849784 0.260770 0.030 Uiso 1 1 calc R U . . .
C30 C 0.606(2) 0.281(2) 0.0581(13) 0.029(4) Uani 1 1 d . . . . .
C31 C 0.228(2) 0.499(2) 0.4832(14) 0.037(5) Uani 1 1 d . . . . .
H31A H 0.248821 0.498574 0.542247 0.056 Uiso 1 1 calc R U . . .
H31B H 0.240006 0.594989 0.477232 0.056 Uiso 1 1 calc R U . . .
H31C H 0.132751 0.466309 0.465343 0.056 Uiso 1 1 calc R U . . .
C32 C 0.3924(16) 0.6467(19) 0.2628(11) 0.020(4) Uani 1 1 d . . . . .
H32A H 0.299678 0.614847 0.258308 0.024 Uiso 1 1 calc R U . . .
C34 C 0.422(2) 0.322(2) 0.4675(13) 0.034(5) Uani 1 1 d . . . . .
H34A H 0.426137 0.340470 0.527015 0.040 Uiso 1 1 calc R U . . .
C35 C 0.680(2) -0.104(2) 0.0761(13) 0.035(5) Uani 1 1 d . . . . .
H35A H 0.733320 -0.117230 0.027069 0.053 Uiso 1 1 calc R U . . .
H35B H 0.738561 -0.116688 0.124441 0.053 Uiso 1 1 calc R U . . .
H35C H 0.603727 -0.173940 0.063430 0.053 Uiso 1 1 calc R U . . .
C36 C 0.086(2) -0.082(2) 0.1410(14) 0.035(5) Uani 1 1 d . . . . .
H36A H 0.157296 -0.152601 0.134954 0.052 Uiso 1 1 calc R U . . .
H36B H 0.021361 -0.105025 0.090573 0.052 Uiso 1 1 calc R U . . .
H36C H 0.037001 -0.083139 0.190501 0.052 Uiso 1 1 calc R U . . .
C37 C 0.1529(18) 0.066(2) 0.1521(12) 0.024(4) Uani 1 1 d . . . . .
C38 C 0.606(2) 0.142(3) 0.4713(14) 0.040(5) Uani 1 1 d . . . . .
H38A H 0.598369 0.179561 0.531758 0.061 Uiso 1 1 calc R U . . .
H38B H 0.580034 0.041467 0.454957 0.061 Uiso 1 1 calc R U . . .
H38C H 0.700694 0.154212 0.458675 0.061 Uiso 1 1 calc R U . . .
C40 C 0.924(2) 0.681(2) 0.2859(12) 0.027(4) Uani 1 1 d . . . . .
C41 C 0.8117(18) 0.791(2) 0.2867(13) 0.028(4) Uani 1 1 d . . . . .
C42 C 0.6214(19) 0.048(2) 0.0975(13) 0.029(4) Uani 1 1 d . . . . .
C44 C 0.656(2) 0.142(2) 0.0462(13) 0.033(5) Uani 1 1 d . . . . .
H44A H 0.715729 0.109439 0.002878 0.039 Uiso 1 1 calc R U . . .
N14 N 0.922(3) 0.802(3) 0.4679(19) 0.082(8) Uani 1 1 d . U . . .
C39 C 0.888(3) 0.874(3) 0.5300(15) 0.050(6) Uani 1 1 d . . . . .
C33 C 0.838(2) 0.966(2) 0.6054(14) 0.040(5) Uani 1 1 d . . . . .

loop_
_atom_site_aniso_label
_atom_site_aniso_U_11
_atom_site_aniso_U_22
_atom_site_aniso_U_33
_atom_site_aniso_U_23
_atom_site_aniso_U_13
_atom_site_aniso_U_12
Dy1 0.0176(4) 0.0172(4) 0.0307(5) 0.0088(3) 0.0022(3) 0.0000(3)
O1 0.030(7) 0.019(6) 0.035(7) 0.012(5) -0.004(6) -0.010(5)
O2 0.005(5) 0.020(6) 0.066(9) 0.023(6) -0.002(6) 0.000(5)
O6 0.024(7) 0.015(6) 0.035(7) 0.006(5) 0.002(5) 0.002(5)
O4 0.027(7) 0.018(6) 0.041(8) 0.011(6) -0.002(6) -0.005(5)
N1 0.012(6) 0.012(6) 0.026(7) 0.009(5) 0.002(5) -0.002(5)
O3 0.033(7) 0.020(7) 0.034(8) 0.004(5) -0.002(6) 0.005(5)
N2 0.016(7) 0.012(7) 0.040(9) 0.005(6) -0.002(6) 0.002(5)
O5 0.035(8) 0.033(8) 0.028(7) 0.010(6) 0.008(6) 0.008(6)
C7 0.037(12) 0.043(13) 0.048(13) 0.021(10) -0.008(10) 0.006(10)
O8 0.014(7) 0.037(8) 0.070(11) 0.017(7) 0.011(6) 0.002(6)
O7 0.038(8) 0.019(7) 0.077(11) 0.023(7) 0.005(8) -0.005(6)
C13 0.043(11) 0.007(8) 0.037(11) 0.011(7) 0.006(9) -0.002(7)
C15 0.024(9) 0.014(8) 0.024(9) 0.010(7) 0.000(7) 0.007(7)
C16 0.011(8) 0.027(9) 0.027(9) 0.006(7) 0.005(7) 0.006(7)
C17 0.028(10) 0.029(10) 0.031(11) 0.009(8) 0.007(8) -0.001(8)
C18 0.018(9) 0.016(8) 0.043(11) 0.012(8) -0.002(8) -0.002(7)
C20 0.036(12) 0.050(14) 0.055(14) 0.024(11) 0.019(10) 0.023(11)
C21 0.017(9) 0.016(8) 0.040(11) 0.010(7) 0.003(7) -0.007(7)
C22 0.014(8) 0.024(9) 0.032(10) 0.009(7) 0.003(7) 0.000(7)
C23 0.019(9) 0.024(9) 0.033(10) 0.004(8) 0.003(7) -0.001(7)
C25 0.020(9) 0.061(14) 0.020(9) 0.011(9) 0.000(7) 0.010(9)
C26 0.022(9) 0.009(8) 0.031(9) 0.009(7) 0.000(7) -0.006(6)
C27 0.016(8) 0.015(8) 0.048(11) 0.010(8) 0.006(8) 0.012(7)
C28 0.018(9) 0.027(10) 0.034(10) 0.008(8) 0.004(7) -0.006(7)
C29 0.020(9) 0.019(9) 0.037(10) 0.007(8) 0.006(7) 0.003(7)
C30 0.026(10) 0.030(10) 0.037(11) 0.017(8) 0.010(8) 0.002(8)
C31 0.044(12) 0.025(10) 0.042(12) 0.004(9) 0.012(10) 0.010(9)
C32 0.006(7) 0.025(9) 0.032(10) 0.011(7) 0.005(6) 0.000(6)
C34 0.029(10) 0.036(11) 0.031(11) 0.000(9) -0.002(8) 0.006(9)
C35 0.036(11) 0.034(11) 0.039(12) 0.014(9) 0.011(9) 0.015(9)
C36 0.032(11) 0.029(10) 0.041(12) 0.008(9) -0.003(9) -0.016(8)
C37 0.016(9) 0.026(9) 0.030(10) 0.007(8) 0.008(7) -0.004(7)
C38 0.038(12) 0.047(13) 0.037(12) 0.014(10) -0.003(9) 0.006(10)
C40 0.029(10) 0.023(9) 0.028(10) 0.007(8) 0.004(8) -0.004(8)
C41 0.014(9) 0.031(10) 0.040(11) 0.011(8) 0.005(8) -0.005(7)
C42 0.022(9) 0.022(9) 0.042(11) 0.006(8) 0.004(8) -0.001(7)
C44 0.024(10) 0.040(12) 0.038(11) 0.013(9) 0.015(8) 0.017(9)
N14 0.091(11) 0.075(11) 0.080(11) 0.016(8) 0.018(9) -0.004(9)
C39 0.083(19) 0.032(12) 0.041(13) 0.017(10) 0.015(12) -0.017(12)
C33 0.042(13) 0.038(12) 0.039(12) 0.005(10) 0.004(10) 0.000(10)

_geom_special_details            
;
 All esds (except the esd in the dihedral angle between two l.s. planes)
 are estimated using the full covariance matrix.  The cell esds are taken
 into account individually in the estimation of esds in distances, angles
 and torsion angles; correlations between esds in cell parameters are only
 used when they are defined by crystal symmetry.  An approximate (isotropic)
 treatment of cell esds is used for estimating esds involving l.s. planes.
;

loop_
_geom_bond_atom_site_label_1
_geom_bond_atom_site_label_2
_geom_bond_distance
_geom_bond_site_symmetry_2
_geom_bond_publ_flag
Dy1 O6 2.295(12) . ?
Dy1 O1 2.307(13) . ?
Dy1 O4 2.310(13) . ?
Dy1 O5 2.320(13) . ?
Dy1 O2 2.325(12) . ?
Dy1 O3 2.333(13) . ?
Dy1 N1 2.595(13) . ?
Dy1 N2 2.602(14) . ?
O1 C25 1.25(2) . ?
O2 C37 1.26(2) . ?
O6 C42 1.26(2) . ?
O4 C13 1.28(2) . ?
N1 C32 1.34(2) . ?
N1 C16 1.36(2) . ?
O3 C17 1.25(2) . ?
N2 C15 1.32(2) . ?
N2 C18 1.36(2) . ?
O5 C30 1.26(2) . ?
C7 C25 1.49(3) . ?
C7 H7A 0.9600 . ?
C7 H7B 0.9600 . ?
C7 H7C 0.9600 . ?
O8 C40 1.19(2) . ?
O7 C41 1.24(2) . ?
C13 C34 1.42(3) . ?
C13 C38 1.47(3) . ?
C15 C22 1.42(2) . ?
C15 C16 1.48(2) . ?
C16 C26 1.39(2) . ?
C17 C34 1.41(3) . ?
C17 C31 1.52(3) . ?
C18 C27 1.36(2) . ?
C18 H18A 0.9300 . ?
C20 C30 1.51(3) . ?
C20 H20A 0.9600 . ?
C20 H20B 0.9600 . ?
C20 H20C 0.9600 . ?
C21 C26 1.38(2) . ?
C21 C29 1.39(2) . ?
C21 H21A 0.9300 . ?
C22 C28 1.38(3) . ?
C22 C40 1.49(2) . ?
C23 C25 1.39(3) . ?
C23 C37 1.42(3) . ?
C23 H23A 0.9300 . ?
C26 C41 1.50(2) . ?
C27 C28 1.38(2) . ?
C27 H27A 0.9300 . ?
C28 H28A 0.9300 . ?
C29 C32 1.38(2) . ?
C29 H29A 0.9300 . ?
C30 C44 1.40(3) . ?
C31 H31A 0.9600 . ?
C31 H31B 0.9600 . ?
C31 H31C 0.9600 . ?
C32 H32A 0.9300 . ?
C34 H34A 0.9300 . ?
C35 C42 1.54(3) . ?
C35 H35A 0.9600 . ?
C35 H35B 0.9600 . ?
C35 H35C 0.9600 . ?
C36 C37 1.53(2) . ?
C36 H36A 0.9600 . ?
C36 H36B 0.9600 . ?
C36 H36C 0.9600 . ?
C38 H38A 0.9600 . ?
C38 H38B 0.9600 . ?
C38 H38C 0.9600 . ?
C40 C41 1.51(3) . ?
C42 C44 1.43(3) . ?
C44 H44A 0.9300 . ?
N14 C39 1.13(3) . ?
C39 C33 1.43(3) . ?

loop_
_geom_angle_atom_site_label_1
_geom_angle_atom_site_label_2
_geom_angle_atom_site_label_3
_geom_angle
_geom_angle_site_symmetry_1
_geom_angle_site_symmetry_3
_geom_angle_publ_flag
O6 Dy1 O1 121.1(4) . . ?
O6 Dy1 O4 77.1(5) . . ?
O1 Dy1 O4 145.4(5) . . ?
O6 Dy1 O5 74.4(5) . . ?
O1 Dy1 O5 75.9(5) . . ?
O4 Dy1 O5 138.5(5) . . ?
O6 Dy1 O2 76.6(4) . . ?
O1 Dy1 O2 74.0(4) . . ?
O4 Dy1 O2 83.5(4) . . ?
O5 Dy1 O2 117.6(5) . . ?
O6 Dy1 O3 146.9(4) . . ?
O1 Dy1 O3 79.5(5) . . ?
O4 Dy1 O3 73.0(5) . . ?
O5 Dy1 O3 138.6(5) . . ?
O2 Dy1 O3 86.1(5) . . ?
O6 Dy1 N1 133.1(4) . . ?
O1 Dy1 N1 78.8(4) . . ?
O4 Dy1 N1 111.3(4) . . ?
O5 Dy1 N1 70.3(4) . . ?
O2 Dy1 N1 148.1(4) . . ?
O3 Dy1 N1 72.6(4) . . ?
O6 Dy1 N2 78.9(4) . . ?
O1 Dy1 N2 136.8(4) . . ?
O4 Dy1 N2 71.6(5) . . ?
O5 Dy1 N2 73.8(5) . . ?
O2 Dy1 N2 148.3(4) . . ?
O3 Dy1 N2 104.3(5) . . ?
N1 Dy1 N2 62.3(4) . . ?
C25 O1 Dy1 136.3(13) . . ?
C37 O2 Dy1 133.6(11) . . ?
C42 O6 Dy1 135.6(12) . . ?
C13 O4 Dy1 135.4(11) . . ?
C32 N1 C16 116.9(14) . . ?
C32 N1 Dy1 121.0(10) . . ?
C16 N1 Dy1 120.9(11) . . ?
C17 O3 Dy1 136.4(12) . . ?
C15 N2 C18 119.1(15) . . ?
C15 N2 Dy1 120.4(11) . . ?
C18 N2 Dy1 119.6(11) . . ?
C30 O5 Dy1 135.7(12) . . ?
C25 C7 H7A 109.5 . . ?
C25 C7 H7B 109.5 . . ?
H7A C7 H7B 109.5 . . ?
C25 C7 H7C 109.5 . . ?
H7A C7 H7C 109.5 . . ?
H7B C7 H7C 109.5 . . ?
O4 C13 C34 123.3(17) . . ?
O4 C13 C38 116.9(17) . . ?
C34 C13 C38 119.7(18) . . ?
N2 C15 C22 121.9(15) . . ?
N2 C15 C16 118.5(16) . . ?
C22 C15 C16 119.6(15) . . ?
N1 C16 C26 121.8(15) . . ?
N1 C16 C15 115.0(15) . . ?
C26 C16 C15 123.1(16) . . ?
O3 C17 C34 123.9(18) . . ?
O3 C17 C31 117.9(17) . . ?
C34 C17 C31 118.1(17) . . ?
N2 C18 C27 122.2(16) . . ?
N2 C18 H18A 118.9 . . ?
C27 C18 H18A 118.9 . . ?
C30 C20 H20A 109.5 . . ?
C30 C20 H20B 109.5 . . ?
H20A C20 H20B 109.5 . . ?
C30 C20 H20C 109.5 . . ?
H20A C20 H20C 109.5 . . ?
H20B C20 H20C 109.5 . . ?
C26 C21 C29 117.7(16) . . ?
C26 C21 H21A 121.1 . . ?
C29 C21 H21A 121.1 . . ?
C28 C22 C15 118.1(16) . . ?
C28 C22 C40 120.9(16) . . ?
C15 C22 C40 120.9(16) . . ?
C25 C23 C37 125.8(17) . . ?
C25 C23 H23A 117.1 . . ?
C37 C23 H23A 117.1 . . ?
O1 C25 C23 123.4(18) . . ?
O1 C25 C7 119(2) . . ?
C23 C25 C7 117.8(18) . . ?
C21 C26 C16 120.6(15) . . ?
C21 C26 C41 120.5(15) . . ?
C16 C26 C41 118.9(15) . . ?
C18 C27 C28 119.2(16) . . ?
C18 C27 H27A 120.4 . . ?
C28 C27 H27A 120.4 . . ?
C22 C28 C27 119.4(16) . . ?
C22 C28 H28A 120.3 . . ?
C27 C28 H28A 120.3 . . ?
C32 C29 C21 119.0(16) . . ?
C32 C29 H29A 120.5 . . ?
C21 C29 H29A 120.5 . . ?
O5 C30 C44 124.8(17) . . ?
O5 C30 C20 117.3(17) . . ?
C44 C30 C20 117.7(17) . . ?
C17 C31 H31A 109.5 . . ?
C17 C31 H31B 109.5 . . ?
H31A C31 H31B 109.5 . . ?
C17 C31 H31C 109.5 . . ?
H31A C31 H31C 109.5 . . ?
H31B C31 H31C 109.5 . . ?
N1 C32 C29 123.9(15) . . ?
N1 C32 H32A 118.0 . . ?
C29 C32 H32A 118.0 . . ?
C17 C34 C13 124.3(18) . . ?
C17 C34 H34A 117.8 . . ?
C13 C34 H34A 117.8 . . ?
C42 C35 H35A 109.5 . . ?
C42 C35 H35B 109.5 . . ?
H35A C35 H35B 109.5 . . ?
C42 C35 H35C 109.5 . . ?
H35A C35 H35C 109.5 . . ?
H35B C35 H35C 109.5 . . ?
C37 C36 H36A 109.5 . . ?
C37 C36 H36B 109.5 . . ?
H36A C36 H36B 109.5 . . ?
C37 C36 H36C 109.5 . . ?
H36A C36 H36C 109.5 . . ?
H36B C36 H36C 109.5 . . ?
O2 C37 C23 123.9(16) . . ?
O2 C37 C36 116.1(16) . . ?
C23 C37 C36 119.9(16) . . ?
C13 C38 H38A 109.5 . . ?
C13 C38 H38B 109.5 . . ?
H38A C38 H38B 109.5 . . ?
C13 C38 H38C 109.5 . . ?
H38A C38 H38C 109.5 . . ?
H38B C38 H38C 109.5 . . ?
O8 C40 C22 122.3(18) . . ?
O8 C40 C41 119.9(17) . . ?
C22 C40 C41 117.6(16) . . ?
O7 C41 C26 119.9(17) . . ?
O7 C41 C40 120.7(16) . . ?
C26 C41 C40 119.3(16) . . ?
O6 C42 C44 125.7(17) . . ?
O6 C42 C35 116.1(17) . . ?
C44 C42 C35 118.2(17) . . ?
C30 C44 C42 123.0(17) . . ?
C30 C44 H44A 118.5 . . ?
C42 C44 H44A 118.5 . . ?
N14 C39 C33 176(3) . . ?

loop_
_geom_torsion_atom_site_label_1
_geom_torsion_atom_site_label_2
_geom_torsion_atom_site_label_3
_geom_torsion_atom_site_label_4
_geom_torsion
_geom_torsion_site_symmetry_1
_geom_torsion_site_symmetry_2
_geom_torsion_site_symmetry_3
_geom_torsion_site_symmetry_4
_geom_torsion_publ_flag
Dy1 O4 C13 C34 21(3) . . . . ?
Dy1 O4 C13 C38 -163.9(14) . . . . ?
C18 N2 C15 C22 3(3) . . . . ?
Dy1 N2 C15 C22 -166.7(13) . . . . ?
C18 N2 C15 C16 -176.7(16) . . . . ?
Dy1 N2 C15 C16 14(2) . . . . ?
C32 N1 C16 C26 0(2) . . . . ?
Dy1 N1 C16 C26 167.5(13) . . . . ?
C32 N1 C16 C15 179.6(15) . . . . ?
Dy1 N1 C16 C15 -13(2) . . . . ?
N2 C15 C16 N1 -1(2) . . . . ?
C22 C15 C16 N1 179.8(15) . . . . ?
N2 C15 C16 C26 178.9(17) . . . . ?
C22 C15 C16 C26 -1(3) . . . . ?
Dy1 O3 C17 C34 -10(3) . . . . ?
Dy1 O3 C17 C31 172.9(13) . . . . ?
C15 N2 C18 C27 -1(3) . . . . ?
Dy1 N2 C18 C27 168.3(15) . . . . ?
N2 C15 C22 C28 -3(3) . . . . ?
C16 C15 C22 C28 176.3(16) . . . . ?
N2 C15 C22 C40 177.2(16) . . . . ?
C16 C15 C22 C40 -3(3) . . . . ?
Dy1 O1 C25 C23 10(3) . . . . ?
Dy1 O1 C25 C7 -169.6(14) . . . . ?
C37 C23 C25 O1 4(3) . . . . ?
C37 C23 C25 C7 -176.8(18) . . . . ?
C29 C21 C26 C16 -1(3) . . . . ?
C29 C21 C26 C41 179.5(17) . . . . ?
N1 C16 C26 C21 0(3) . . . . ?
C15 C16 C26 C21 -179.6(17) . . . . ?
N1 C16 C26 C41 179.9(16) . . . . ?
C15 C16 C26 C41 0(3) . . . . ?
N2 C18 C27 C28 0(3) . . . . ?
C15 C22 C28 C27 2(3) . . . . ?
C40 C22 C28 C27 -178.4(17) . . . . ?
C18 C27 C28 C22 -1(3) . . . . ?
C26 C21 C29 C32 1(3) . . . . ?
Dy1 O5 C30 C44 12(3) . . . . ?
Dy1 O5 C30 C20 -172.8(14) . . . . ?
C16 N1 C32 C29 1(3) . . . . ?
Dy1 N1 C32 C29 -166.8(14) . . . . ?
C21 C29 C32 N1 -1(3) . . . . ?
O3 C17 C34 C13 -2(3) . . . . ?
C31 C17 C34 C13 175.4(19) . . . . ?
O4 C13 C34 C17 -3(3) . . . . ?
C38 C13 C34 C17 -178(2) . . . . ?
Dy1 O2 C37 C23 -15(3) . . . . ?
Dy1 O2 C37 C36 167.8(12) . . . . ?
C25 C23 C37 O2 -1(3) . . . . ?
C25 C23 C37 C36 176.1(18) . . . . ?
C28 C22 C40 O8 13(3) . . . . ?
C15 C22 C40 O8 -167.4(19) . . . . ?
C28 C22 C40 C41 -172.4(17) . . . . ?
C15 C22 C40 C41 7(3) . . . . ?
C21 C26 C41 O7 2(3) . . . . ?
C16 C26 C41 O7 -178.3(18) . . . . ?
C21 C26 C41 C40 -176.3(17) . . . . ?
C16 C26 C41 C40 4(3) . . . . ?
O8 C40 C41 O7 -11(3) . . . . ?
C22 C40 C41 O7 174.7(18) . . . . ?
O8 C40 C41 C26 167.4(18) . . . . ?
C22 C40 C41 C26 -7(3) . . . . ?
Dy1 O6 C42 C44 1(3) . . . . ?
Dy1 O6 C42 C35 179.1(12) . . . . ?
O5 C30 C44 C42 -2(3) . . . . ?
C20 C30 C44 C42 -178(2) . . . . ?
O6 C42 C44 C30 -4(3) . . . . ?
C35 C42 C44 C30 177.9(19) . . . . ?

_refine_diff_density_max         7.875
_refine_diff_density_min         -3.562
_refine_diff_density_rms         0.328

_shelx_res_file                  
;
TITL  SIR92 run in space group P -1
    EG23p_150.res
    created by SHELXL-2017/1 at 12:29:45 on 04-Oct-2022
CELL   0.71073    9.5998   9.6354  16.1461 104.794  94.535  90.536
ZERR         2    0.0010   0.0009   0.0008   0.006   0.006   0.008
LATT  1
SFAC    C   H   N   O   DY
UNIT    58  54  6  16   2
MERG    2
L.S.   20
omit -2 52.14
ACTA
BOND   $H
CONF
htab
TEMP     25.0
FMAP   2
PLAN    25
isor 0.01 0.01 n14

WGHT    0.059500  100.587608
FVAR       2.21268
DY1   5    0.433401    0.278463    0.229776    11.00000    0.01763    0.01723 =
         0.03070    0.00881    0.00223   -0.00004
O1    4    0.242451    0.359848    0.161975    11.00000    0.03024    0.01881 =
         0.03548    0.01235   -0.00384   -0.01007
O2    4    0.263074    0.095626    0.202248    11.00000    0.00506    0.02024 =
         0.06649    0.02262   -0.00237   -0.00014
O6    4    0.548282    0.079543    0.161118    11.00000    0.02368    0.01477 =
         0.03535    0.00634    0.00226    0.00230
O4    4    0.510794    0.180500    0.340982    11.00000    0.02731    0.01786 =
         0.04092    0.01137   -0.00231   -0.00453
N1    3    0.492653    0.551811    0.266876    11.00000    0.01164    0.01205 =
         0.02626    0.00919    0.00198   -0.00174
O3    4    0.312536    0.387883    0.347935    11.00000    0.03344    0.01994 =
         0.03386    0.00444   -0.00210    0.00504
N2    3    0.692645    0.361834    0.277027    11.00000    0.01638    0.01240 =
         0.04014    0.00519   -0.00156    0.00250
O5    4    0.521110    0.336488    0.112654    11.00000    0.03485    0.03349 =
         0.02799    0.00971    0.00831    0.00825
C7    1    0.045386    0.394299    0.073123    11.00000    0.03671    0.04270 =
         0.04835    0.02126   -0.00781    0.00643
AFIX  33
H7A   2   -0.034984    0.338590    0.042780    11.00000   -1.50000
H7B   2    0.015516    0.477008    0.114199    11.00000   -1.50000
H7C   2    0.099417    0.424751    0.033024    11.00000   -1.50000
AFIX   0
O8    4    1.041533    0.711791    0.278177    11.00000    0.01363    0.03668 =
         0.07019    0.01718    0.01144    0.00229
O7    4    0.843207    0.918087    0.291945    11.00000    0.03812    0.01892 =
         0.07670    0.02275    0.00499   -0.00485
C13   1    0.512298    0.218878    0.422880    11.00000    0.04254    0.00657 =
         0.03741    0.01099    0.00585   -0.00181
C15   1    0.734877    0.493521    0.279482    11.00000    0.02390    0.01390 =
         0.02427    0.00993    0.00019    0.00680
C16   1    0.627789    0.601674    0.274591    11.00000    0.01078    0.02749 =
         0.02704    0.00640    0.00489    0.00558
C17   1    0.325786    0.399883    0.427330    11.00000    0.02776    0.02855 =
         0.03146    0.00897    0.00671   -0.00066
C18   1    0.789441    0.263542    0.285790    11.00000    0.01808    0.01581 =
         0.04344    0.01237   -0.00184   -0.00167
AFIX  43
H18A  2    0.759293    0.171232    0.285138    11.00000   -1.20000
AFIX   0
C20   1    0.646143    0.367493   -0.002707    11.00000    0.03602    0.04990 =
         0.05517    0.02368    0.01914    0.02263
AFIX  33
H20A  2    0.710197    0.314436   -0.040727    11.00000   -1.50000
H20B  2    0.564064    0.386004   -0.035723    11.00000   -1.50000
H20C  2    0.689999    0.456938    0.029668    11.00000   -1.50000
AFIX   0
C21   1    0.556812    0.839773    0.273704    11.00000    0.01736    0.01579 =
         0.03978    0.01013    0.00290   -0.00668
AFIX  43
H21A  2    0.578068    0.935300    0.276470    11.00000   -1.20000
AFIX   0
C22   1    0.878384    0.533845    0.287289    11.00000    0.01450    0.02393 =
         0.03182    0.00924    0.00324   -0.00047
C23   1    0.087372    0.164878    0.110225    11.00000    0.01858    0.02375 =
         0.03252    0.00421    0.00323   -0.00148
AFIX  43
H23A  2    0.007104    0.132222    0.074011    11.00000   -1.20000
AFIX   0
C25   1    0.132578    0.305181    0.118678    11.00000    0.01975    0.06064 =
         0.01961    0.01089   -0.00012    0.00958
C26   1    0.660822    0.743743    0.278048    11.00000    0.02168    0.00936 =
         0.03099    0.00929    0.00023   -0.00557
C27   1    0.929500    0.295772    0.295521    11.00000    0.01577    0.01496 =
         0.04820    0.00991    0.00572    0.01198
AFIX  43
H27A  2    0.993545    0.226319    0.301277    11.00000   -1.20000
AFIX   0
C28   1    0.975094    0.432970    0.296724    11.00000    0.01793    0.02651 =
         0.03354    0.00809    0.00358   -0.00565
AFIX  43
H28A  2    1.070140    0.456917    0.303836    11.00000   -1.20000
AFIX   0
C29   1    0.418707    0.788952    0.265028    11.00000    0.02038    0.01888 =
         0.03693    0.00651    0.00603    0.00340
AFIX  43
H29A  2    0.345346    0.849784    0.260770    11.00000   -1.20000
AFIX   0
C30   1    0.605526    0.281170    0.058082    11.00000    0.02628    0.02988 =
         0.03692    0.01724    0.01003    0.00196
C31   1    0.227766    0.499127    0.483212    11.00000    0.04392    0.02505 =
         0.04237    0.00379    0.01211    0.01018
AFIX  33
H31A  2    0.248821    0.498574    0.542247    11.00000   -1.50000
H31B  2    0.240006    0.594989    0.477232    11.00000   -1.50000
H31C  2    0.132751    0.466309    0.465343    11.00000   -1.50000
AFIX   0
C32   1    0.392385    0.646736    0.262843    11.00000    0.00644    0.02516 =
         0.03209    0.01123    0.00521    0.00047
AFIX  43
H32A  2    0.299678    0.614847    0.258308    11.00000   -1.20000
AFIX   0
C34   1    0.421814    0.322470    0.467457    11.00000    0.02875    0.03636 =
         0.03058    0.00024   -0.00228    0.00596
AFIX  43
H34A  2    0.426137    0.340470    0.527015    11.00000   -1.20000
AFIX   0
C35   1    0.679748   -0.104320    0.076085    11.00000    0.03637    0.03420 =
         0.03927    0.01415    0.01095    0.01521
AFIX  33
H35A  2    0.733320   -0.117230    0.027069    11.00000   -1.50000
H35B  2    0.738561   -0.116688    0.124441    11.00000   -1.50000
H35C  2    0.603727   -0.173940    0.063430    11.00000   -1.50000
AFIX   0
C36   1    0.085927   -0.082430    0.140998    11.00000    0.03162    0.02853 =
         0.04145    0.00764   -0.00260   -0.01572
AFIX 137
H36A  2    0.157296   -0.152601    0.134954    11.00000   -1.50000
H36B  2    0.021361   -0.105025    0.090573    11.00000   -1.50000
H36C  2    0.037001   -0.083139    0.190501    11.00000   -1.50000
AFIX   0
C37   1    0.152947    0.066289    0.152080    11.00000    0.01630    0.02623 =
         0.03004    0.00681    0.00812   -0.00411
C38   1    0.606004    0.141823    0.471280    11.00000    0.03756    0.04717 =
         0.03742    0.01376   -0.00253    0.00615
AFIX  33
H38A  2    0.598369    0.179561    0.531758    11.00000   -1.50000
H38B  2    0.580034    0.041467    0.454957    11.00000   -1.50000
H38C  2    0.700694    0.154212    0.458675    11.00000   -1.50000
AFIX   0
C40   1    0.923708    0.681491    0.285920    11.00000    0.02881    0.02342 =
         0.02793    0.00673    0.00352   -0.00414
C41   1    0.811662    0.791121    0.286674    11.00000    0.01442    0.03110 =
         0.04044    0.01104    0.00461   -0.00482
C42   1    0.621378    0.048014    0.097461    11.00000    0.02163    0.02206 =
         0.04232    0.00597    0.00379   -0.00091
C44   1    0.656445    0.141981    0.046159    11.00000    0.02381    0.04034 =
         0.03754    0.01269    0.01468    0.01658
AFIX  43
H44A  2    0.715729    0.109439    0.002878    11.00000   -1.20000
AFIX   0

N14   3    0.921565    0.801950    0.467945    11.00000    0.09143    0.07485 =
         0.07992    0.01629    0.01802   -0.00353
C39   1    0.887893    0.873522    0.529960    11.00000    0.08286    0.03185 =
         0.04080    0.01736    0.01468   -0.01688
C33   1    0.837646    0.966218    0.605373    11.00000    0.04207    0.03758 =
         0.03870    0.00530    0.00356    0.00016
HKLF 4




REM   SIR92 run in space group P -1
REM R1 =  0.1080 for    4658 Fo > 4sig(Fo)  and  0.1247 for all    5676 data
REM    371 parameters refined using      6 restraints

END

WGHT      0.0554    102.3711

REM Instructions for potential hydrogen bonds
EQIV $1 x, y-1, z
HTAB C18 O7_$1
HTAB C32 O1
EQIV $2 x-1, y-1, z
HTAB C36 O7_$2

REM Highest difference peak  7.875,  deepest hole -3.562,  1-sigma level  0.328
Q1    1   0.4132  0.2441  0.1610  11.00000  0.05    7.87
Q2    1   0.4522  0.3165  0.2988  11.00000  0.05    7.46
Q3    1   0.3989  0.2257  0.1131  11.00000  0.05    5.85
Q4    1   0.4686  0.3381  0.3484  11.00000  0.05    5.76
Q5    1   0.6381 -0.1632  0.0038  11.00000  0.05    1.67
Q6    1   0.5586  0.1374  0.2920  11.00000  0.05    1.50
Q7    1   0.5242  0.2429  0.2432  11.00000  0.05    1.37
Q8    1   0.6479  0.1960  0.2633  11.00000  0.05    1.35
Q9    1   0.2496  0.2770  0.2493  11.00000  0.05    1.33
Q10   1   0.5956  0.1854  0.4122  11.00000  0.05    1.17
Q11   1   0.6789  0.3393  0.2154  11.00000  0.05    1.13
Q12   1   0.3416  0.3175  0.2058  11.00000  0.05    1.09
Q13   1   0.4783  0.1584  0.1902  11.00000  0.05    0.97
Q14   1   0.4857  0.1771  0.2823  11.00000  0.05    0.95
Q15   1   0.7308  0.4137  0.3547  11.00000  0.05    0.94
Q16   1   0.4353  0.4340  0.3132  11.00000  0.05    0.93
Q17   1   0.6581  0.2368  0.3625  11.00000  0.05    0.93
Q18   1   0.5871  0.4807  0.2942  11.00000  0.05    0.92
Q19   1   1.0426  0.7206  0.3525  11.00000  0.05    0.90
Q20   1   0.4803  0.5238  0.2032  11.00000  0.05    0.89
Q21   1   0.3824  0.4052  0.2559  11.00000  0.05    0.88
Q22   1   0.5238  0.3862  0.1771  11.00000  0.05    0.87
Q23   1   0.5964  0.1269  0.2332  11.00000  0.05    0.87
Q24   1   0.4063  0.6941  0.3396  11.00000  0.05    0.84
Q25   1   0.8292  0.1176  0.1634  11.00000  0.05    0.84
;
_shelx_res_checksum              37624

_shelx_hkl_file                  
;
 -12  -5   6 1162.00 925.561   5
 -12  -4   4 3786.67 1148.22   5
 -12  -4   5 2726.67 1079.86   5
 -12  -4   6 8033.31 1339.98   5
 -12  -3   2 4626.85 1224.06   5
 -12  -3   3 3372.50 1139.60   5
 -12  -3   4 6814.48 1351.32   5
 -12  -3   5 6227.95 1303.31   5
 -12  -3   6 8539.57 1570.55   4
 -12  -3   6 3412.82 1102.39   5
 -12  -3   7 6612.12 1483.26   4
 -12  -3   8 2970.99 1295.07   4
 -12  -2   0 130.523 952.072   5
 -12  -2   1 7134.75 1388.52   5
 -12  -2   2 1728.73 1093.00   5
 -12  -2   3 6771.53 1367.50   5
 -12  -2   4 3815.03 1147.56   5
 -12  -2   5 5522.96 1207.87   5
 -12  -2   5 11271.8 1612.32   4
 -12  -2   6 6100.31 1381.47   4
 -12  -2   6 2809.75 1062.10   5
 -12  -2   7 4014.93 1265.84   4
 -12  -2   8 1799.27 1100.72   4
 -12  -2   9-302.294 1026.15   4
 -12  -2  10-987.657 1111.59   4
 -11  -7   7 2560.29 1013.99   5
 -11  -6   4 6866.52 1283.87   5
 -11  -6   5 1777.17 936.941   5
 -11  -6   6 5097.92 1123.52   5
 -11  -6   7 3230.11 1036.28   5
 -11  -5   1 5830.64 1208.44   5
 -11  -5   2-176.813 843.154   5
 -11  -5   3 4383.72 1099.25   5
 -11  -5   4 214.962 826.552   5
 -11  -5   5 4813.39 1071.20   5
 -11  -5   6 720.092 774.844   5
 -11  -5   7 4230.46 1019.70   5
 -11  -4  -1 2425.39 1076.56   5
 -11  -4   0 4105.47 1140.42   5
 -11  -4   1 1697.23 953.087   5
 -11  -4   2 5891.82 1226.68   5
 -11  -4   3 1780.33 966.370   5
 -11  -4   4 5664.20 1166.72   5
 -11  -4   5 3117.27 1005.02   5
 -11  -4   6 10120.3 1363.12   5
 -11  -4   7 7687.54 1524.17   4
 -11  -4   7 1788.05 884.243   5
 -11  -4   8 9286.79 1595.19   4
 -11  -4   9 2668.87 1251.51   4
 -11  -4  10 4145.20 1315.77   4
 -11  -3  -3 1134.62 966.799   5
 -11  -3  -2 7449.31 1358.93   5
 -11  -3  -1 659.391 851.070   5
 -11  -3   0 4342.42 1143.12   5
 -11  -3   1 3633.51 1086.04   5
 -11  -3   2 2229.20 978.036   5
 -11  -3   3 4103.92 1076.61   5
 -11  -3   4 2664.37 999.160   5
 -11  -3   5 8025.65 1274.24   5
 -11  -3   6 906.788 829.637   5
 -11  -3   6 7772.72 1467.73   4
 -11  -3   7 6342.13 1134.70   5
 -11  -3   7 10146.0 1529.98   4
 -11  -3   8 1917.44 1138.34   4
 -11  -3   9 5983.04 1365.83   4
 -11  -3  10-6.68713 984.825   4
 -11  -3  11 1432.76 1049.98   4
 -11  -2  -4 974.808 936.391   5
 -11  -2  -3 5880.58 1266.71   5
 -11  -2  -2 226.053 867.557   5
 -11  -2  -1 7238.83 1323.88   5
 -11  -2   0 915.783 886.301   5
 -11  -2   1 5097.63 1171.96   5
 -11  -2   2 5414.58 1192.28   5
 -11  -2   3 3324.22 1047.05   5
 -11  -2   4 9349.35 1351.92   5
 -11  -2   5 5402.25 1179.33   5
 -11  -2   6 12377.5 1560.22   4
 -11  -2   6 9484.36 1341.40   5
 -11  -2   7 623.025 799.091   5
 -11  -2   7 3437.15 1172.68   4
 -11  -2   8 8454.01 1384.72   4
 -11  -2   9-1274.51 1007.88   4
 -11  -2  10 1772.65 1002.08   4
 -11  -2  11-2965.47 1188.33   4
 -11  -2  12 2827.34 1071.08   4
 -11  -1  -5 89.3805 936.429   5
 -11  -1  -4 6264.02 1339.98   5
 -11  -1   5 9087.73 1366.84   4
 -11  -1   6 3654.54 1110.13   4
 -11  -1   7 2656.30 1022.77   4
 -11  -1   8-158.349 879.295   4
 -11  -1   9 160.006 919.341   4
 -11  -1  10-2380.20 1030.71   4
 -11  -1  11 4024.93 1074.27   4
 -11  -1  12 1613.46 943.691   4
 -11  -1  13 1208.12 911.347   4
 -11   0   3 11280.4 1372.27   4
 -11   0   4 6856.94 1199.53   4
 -11   0   5 2708.69 984.630   4
 -11   0   6 1409.52 842.016   4
 -11   0   7 216.608 833.864   4
 -11   0   8 2119.05 861.845   4
 -11   0   9 962.637 798.342   4
 -11   0  10 3413.93 946.919   4
 -11   0  11 575.943 802.922   4
 -10  -8   6 2421.87 1082.15   5
 -10  -8   7 6568.23 1310.57   5
 -10  -7   2 3445.91 1104.34   5
 -10  -7   3 4736.70 1177.87   5
 -10  -7   4 6403.40 1249.57   5
 -10  -7   5 4630.67 1188.38   5
 -10  -7   6 12878.7 1554.61   5
 -10  -7   7 4117.02 1094.60   5
 -10  -7   8 10214.8 1380.53   5
 -10  -6  -1-39.7994 832.647   5
 -10  -6   0 8560.70 1385.14   5
 -10  -6   1-57.6287 816.871   5
 -10  -6   2 8645.94 1337.11   5
 -10  -6   3 1989.20 935.614   5
 -10  -6   4 8166.13 1284.39   5
 -10  -6   5 3619.49 1017.79   5
 -10  -6   6 7759.90 1235.97   5
 -10  -6   7 3546.56 995.048   5
 -10  -6   8 1941.97 883.440   5
 -10  -6   9 8543.62 1635.91   4
 -10  -5  -3 4795.78 1138.85   5
 -10  -5  -2 220.728 809.892   5
 -10  -5  -1 4751.01 1127.00   5
 -10  -5   0 320.743 824.232   5
 -10  -5   1 9986.64 1380.04   5
 -10  -5   2 1919.98 889.903   5
 -10  -5   3 7158.43 1169.14   5
 -10  -5   4 2422.15 935.278   5
 -10  -5   5 7219.85 1178.60   5
 -10  -5   6 2965.80 891.236   5
 -10  -5   7 6850.48 1102.05   5
 -10  -5   8 11958.5 1688.44   4
 -10  -5   8 4424.32 935.733   5
 -10  -5   9 8487.59 1558.00   4
 -10  -5  10 5684.60 1410.09   4
 -10  -5  11 1761.44 1176.41   4
 -10  -4  -5 3470.41 1118.29   5
 -10  -4  -4 4357.55 1158.04   5
 -10  -4  -3 5852.11 1254.34   5
 -10  -4  -2 4037.66 1104.76   5
 -10  -4  -1 1211.92 864.235   5
 -10  -4   0 8062.18 1290.09   5
 -10  -4   1 829.367 835.341   5
 -10  -4   2 8309.48 1237.42   5
 -10  -4   3 1853.77 885.159   5
 -10  -4   4 4715.96 1046.09   5
 -10  -4   5 4260.90 1020.72   5
 -10  -4   6 9860.10 1268.18   5
 -10  -4   7 2593.19 867.660   5
 -10  -4   8 6875.35 1093.07   5
 -10  -4   8 11429.6 1589.83   4
 -10  -4   9 8035.26 1478.16   4
 -10  -4  10 1141.28 1022.52   4
 -10  -4  11 3293.19 1171.55   4
 -10  -4  12-1817.24 1139.52   4
 -10  -3  -7 398.628 889.714   5
 -10  -3  -6 4511.85 1201.66   5
 -10  -3  -5 1857.15 1010.82   5
 -10  -3  -4 6520.28 1290.27   5
 -10  -3  -3 3947.90 1095.54   5
 -10  -3  -2 4157.57 1100.39   5
 -10  -3  -1 4142.23 1070.30   5
 -10  -3   0 786.754 817.610   5
 -10  -3   1 6837.78 1171.54   5
 -10  -3   2 2244.34 933.922   5
 -10  -3   3 8295.29 1211.51   5
 -10  -3   4 4546.70 1007.88   5
 -10  -3   5 10716.7 1302.27   5
 -10  -3   6 1915.05 846.842   5
 -10  -3   7 15848.2 1703.49   4
 -10  -3   7 10284.5 1269.50   5
 -10  -3   8 4052.69 931.923   5
 -10  -3   8 7192.08 1352.08   4
 -10  -3   9 2251.06 1073.35   4
 -10  -3  10 2687.30 1042.19   4
 -10  -3  11 1117.93 992.700   4
 -10  -3  12 1813.52 1027.49   4
 -10  -3  13-959.184 989.899   4
 -10  -2  -8 336.432 932.417   5
 -10  -2  -7 5030.92 1220.58   5
 -10  -2  -6 920.826 959.338   5
 -10  -2  -5 6625.36 1303.03   5
 -10  -2  -4 1841.51 994.109   5
 -10  -2  -3 7894.49 1327.63   5
 -10  -2  -2 2222.92 954.970   5
 -10  -2  -1 8765.38 1329.25   5
 -10  -2   0 6144.10 1158.65   5
 -10  -2   1 4539.08 1090.75   5
 -10  -2   2 10421.9 1345.20   5
 -10  -2   3 3049.49 986.252   5
 -10  -2   4 13144.2 1435.77   5
 -10  -2   5 2287.48 845.214   5
 -10  -2   6 11094.3 1297.19   5
 -10  -2   6 14016.8 1532.72   4
 -10  -2   7 2556.11 1040.18   4
 -10  -2   7 982.769 747.832   5
 -10  -2   8 5486.46 997.805   5
 -10  -2   8 6258.73 1228.16   4
 -10  -2   9 1526.75 937.044   4
 -10  -2  10 2793.82 1013.28   4
 -10  -2  11 319.907 898.018   4
 -10  -2  12 3341.30 1066.85   4
 -10  -2  13 6185.75 1240.00   4
 -10  -2  14 1577.94 938.579   4
 -10  -1  -9 948.623 938.980   5
 -10  -1  -8 6080.39 1267.50   5
 -10  -1  -7-140.263 852.112   5
 -10  -1  -6 9537.49 1407.56   5
 -10  -1  -5 1206.59 979.173   5
 -10  -1   5 9402.18 1275.48   4
 -10  -1   6 1892.80 955.638   4
 -10  -1   7 7570.33 1194.68   4
 -10  -1   8-872.507 837.484   4
 -10  -1   9 5383.29 1035.05   4
 -10  -1  10-2503.62 997.315   4
 -10  -1  11 6774.66 1162.00   4
 -10  -1  12 4046.90 1039.70   4
 -10  -1  13 2271.62 955.154   4
 -10  -1  14 1781.67 921.762   4
 -10   0 -10 2859.91 1113.75   5
 -10   0  -9 4137.33 1151.24   5
 -10   0   4 12132.2 1301.67   4
 -10   0   5 2458.38 898.375   4
 -10   0   6 2118.51 814.635   4
 -10   0   7-538.439 801.709   4
 -10   0   8 5268.47 971.601   4
 -10   0   9-421.068 783.652   4
 -10   0  10 4445.80 955.361   4
 -10   0  11 3673.10 963.573   4
 -10   0  12 2072.76 876.807   4
 -10   0  13 2215.09 918.386   4
 -10   0  14 583.834 832.715   4
 -10   1   3 11223.8 1184.33   4
 -10   1   4 1066.21 742.670   4
 -10   1   5 2637.60 744.626   4
 -10   1   6-51.0843 667.003   4
 -10   1   7 7790.32 1031.41   4
 -10   1   8 1393.62 712.552   4
 -10   1   9 9310.33 1119.84   4
 -10   1  10 1066.22 748.629   4
 -10   1  11 5582.34 1002.71   4
 -10   1  12 583.524 738.976   4
 -10   1  13 3462.52 970.851   4
 -10   2 -12 2491.09 1061.28   1
 -10   2 -11-1219.98 920.474   1
 -10   2 -10 2148.25 925.988   1
 -10   3 -12-614.008 950.225   1
 -10   3 -11 5845.59 1179.44   1
 -10   3 -10-75.4177 747.992   1
 -10   3  -9 3947.91 975.510   1
 -10   3  -8 2335.65 843.400   1
 -10   4 -12 5169.92 1196.46   1
 -10   4 -11 615.380 879.814   1
  -9  -9   6 9486.84 1482.75   5
  -9  -9   7 4566.86 1185.72   5
  -9  -9   8 5527.67 1191.18   5
  -9  -8   2 1919.81 1005.95   5
  -9  -8   3 3389.91 1088.54   5
  -9  -8   4-694.739 877.652   5
  -9  -8   5 5692.26 1207.08   5
  -9  -8   6 1427.51 922.810   5
  -9  -8   7 5312.93 1124.14   5
  -9  -8   8 1420.85 876.967   5
  -9  -7  -1 5990.59 1261.90   5
  -9  -7   0 4372.95 1123.60   5
  -9  -7   1 4143.68 1088.50   5
  -9  -7   2 4590.97 1128.85   5
  -9  -7   3 2181.38 965.580   5
  -9  -7   4 7973.68 1279.65   5
  -9  -7   5 3357.56 1023.22   5
  -9  -7   6 11506.6 1390.32   5
  -9  -7   7 2157.90 944.013   5
  -9  -7   8 6072.00 1100.22   5
  -9  -7   9 8642.47 1629.71   4
  -9  -7  10 11076.9 1730.31   4
  -9  -6  -4 7004.12 1269.81   5
  -9  -6  -3 314.873 805.750   5
  -9  -6  -2 9511.34 1379.23   5
  -9  -6  -1 223.580 749.785   5
  -9  -6   0 6847.90 1180.17   5
  -9  -6   1 977.228 848.184   5
  -9  -6   2 4344.71 1031.07   5
  -9  -6   3 1438.78 811.603   5
  -9  -6   4 4225.25 982.155   5
  -9  -6   5 8304.43 1184.71   5
  -9  -6   6 3232.12 924.708   5
  -9  -6   7 6468.60 1064.35   5
  -9  -6   8 12.6965 686.271   5
  -9  -6   9 10559.4 1631.59   4
  -9  -6  10 2486.27 1157.19   4
  -9  -6  11 5220.22 1357.91   4
  -9  -6  12-365.671 1071.94   4
  -9  -5  -6 1295.78 863.997   5
  -9  -5  -5 5269.46 1134.84   5
  -9  -5  -4 1504.55 900.008   5
  -9  -5  -3 8901.84 1291.25   5
  -9  -5  -2 741.372 801.054   5
  -9  -5  -1 6037.38 1124.13   5
  -9  -5   0 1212.36 766.077   5
  -9  -5   1 3826.80 960.548   5
  -9  -5   2 500.964 722.214   5
  -9  -5   3 6745.31 1068.56   5
  -9  -5   4 5096.81 966.789   5
  -9  -5   5 6134.43 989.049   5
  -9  -5   6 6897.51 1022.34   5
  -9  -5   7 987.092 717.961   5
  -9  -5   8 10366.1 1139.98   5
  -9  -5   9 530.367 622.838   5
  -9  -5   9 3363.33 1230.68   4
  -9  -5  10 9197.58 1490.18   4
  -9  -5  11 1700.93 1140.09   4
  -9  -5  12 7678.84 1414.25   4
  -9  -5  13 862.070 1007.12   4
  -9  -4  -8 2840.19 984.303   5
  -9  -4  -7 4337.99 1112.15   5
  -9  -4  -6 3602.23 1070.24   5
  -9  -4  -5 2032.22 918.773   5
  -9  -4  -4 9503.04 1333.57   5
  -9  -4  -3 2680.91 948.397   5
  -9  -4  -2 5957.56 1130.75   5
  -9  -4  -1-79.9048 747.479   5
  -9  -4   0 5817.18 1083.74   5
  -9  -4   1 377.942 705.967   5
  -9  -4   2 16872.4 1505.91   5
  -9  -4   3 5269.08 1021.07   5
  -9  -4   4 20205.1 1591.80   5
  -9  -4   5 11137.9 1254.70   5
  -9  -4   6 11336.9 1254.59   5
  -9  -4   7 9516.18 1146.19   5
  -9  -4   8 2884.42 747.365   5
  -9  -4   8 5986.38 1280.53   4
  -9  -4   9 11146.3 1540.56   4
  -9  -4   9 9941.43 1072.78   5
  -9  -4  10 515.388 940.552   4
  -9  -4  11 3517.37 1104.04   4
  -9  -4  12 965.959 974.721   4
  -9  -4  13 1314.61 925.998   4
  -9  -4  14 697.429 923.531   4
  -9  -3 -10 4865.00 1216.83   5
  -9  -3  -9 2176.36 967.907   5
  -9  -3  -8 12160.6 1533.51   5
  -9  -3  -7 3496.85 1040.74   5
  -9  -3  -6 8687.33 1348.43   5
  -9  -3  -5 7294.14 1281.27   5
  -9  -3  -4 8311.12 1268.39   5
  -9  -3  -3 3409.56 988.965   5
  -9  -3  -2 4138.20 986.884   5
  -9  -3  -1 4551.05 997.760   5
  -9  -3   0 448.981 697.772   5
  -9  -3   1 7042.40 1085.38   5
  -9  -3   2 923.994 719.970   5
  -9  -3   3 10873.7 1243.51   5
  -9  -3   4 7949.67 1091.21   5
  -9  -3   5 7292.75 1063.58   5
  -9  -3   6 6205.34 964.744   5
  -9  -3   7 4172.44 858.830   5
  -9  -3   7 7745.10 1316.89   4
  -9  -3   8 15595.6 1345.22   5
  -9  -3   8 17898.8 1720.48   4
  -9  -3   9 275.470 595.401   5
  -9  -3   9 314.640 887.065   4
  -9  -3  10 7558.63 1271.24   4
  -9  -3  11 242.113 886.556   4
  -9  -3  12 8790.06 1335.36   4
  -9  -3  13 732.804 913.773   4
  -9  -3  14 8089.86 1353.26   4
  -9  -3  15 958.977 907.628   4
  -9  -2 -11 5567.01 1257.70   5
  -9  -2 -10 136.305 859.937   5
  -9  -2  -9 7363.81 1320.56   5
  -9  -2  -8 74.2013 808.722   5
  -9  -2  -7 4826.60 1092.57   5
  -9  -2  -6 169.374 773.288   5
  -9  -2  -5 8275.99 1322.36   5
  -9  -2  -4 6030.36 1139.62   5
  -9  -2  -3 2390.63 904.473   5
  -9  -2  -2 8430.76 1193.07   5
  -9  -2  -1 858.374 791.859   5
  -9  -2   0 13832.1 1402.44   5
  -9  -2   1 1629.85 769.537   5
  -9  -2   2 23937.8 1708.27   5
  -9  -2   3 9210.09 1191.96   5
  -9  -2   4 20624.6 1582.89   5
  -9  -2   5 7796.44 1082.14   5
  -9  -2   6 17169.7 1571.03   4
  -9  -2   6 16223.5 1388.72   5
  -9  -2   7 4103.43 863.104   5
  -9  -2   7 4719.95 1074.33   4
  -9  -2   8 11863.7 1415.67   4
  -9  -2   8 11575.6 1189.64   5
  -9  -2   9 4724.10 1077.37   4
  -9  -2   9 4818.40 854.863   5
  -9  -2  10 924.949 796.706   4
  -9  -2  11 2218.07 902.895   4
  -9  -2  12 2038.49 915.037   4
  -9  -2  13 5299.77 1126.24   4
  -9  -2  14 1167.54 882.771   4
  -9  -2  15 840.513 907.945   4
  -9  -1 -12 4178.60 1181.39   5
  -9  -1 -11 152.878 844.617   5
  -9  -1 -10 7003.94 1304.78   5
  -9  -1  -9-606.761 906.343   5
  -9  -1  -8 7334.11 1268.30   5
  -9  -1  -7 153.682 776.249   5
  -9  -1  -6 11151.1 1407.32   5
  -9  -1   5 13924.6 1328.68   4
  -9  -1   6 2087.52 904.417   4
  -9  -1   7 7646.89 1147.51   4
  -9  -1   8 344.374 711.318   4
  -9  -1   9 3074.55 875.722   4
  -9  -1  10 1741.59 848.522   4
  -9  -1  11 1436.71 787.801   4
  -9  -1  12 6153.63 1102.67   4
  -9  -1  13 1088.77 820.326   4
  -9  -1  14 3430.00 983.173   4
  -9  -1  15-244.521 809.459   4
  -9   0 -13 4257.03 1169.75   5
  -9   0 -12 415.204 887.620   5
  -9   0 -11 5802.29 1254.93   5
  -9   0 -10 1430.04 951.252   5
  -9   0   4 14758.2 1309.24   4
  -9   0   5 1612.76 796.841   4
  -9   0   6 5243.25 931.808   4
  -9   0   7-852.009 752.812   4
  -9   0   8 9276.37 1091.14   4
  -9   0   9 1454.52 727.627   4
  -9   0  10 7074.61 1040.88   4
  -9   0  11 4373.45 960.101   4
  -9   0  12 612.023 732.337   4
  -9   0  13 3040.82 913.958   4
  -9   0  14-157.205 774.222   4
  -9   0  15 3447.81 1032.33   4
  -9   0  16 663.757 880.336   4
  -9   1 -13 2083.47 1028.77   5
  -9   1   3 15629.0 1230.85   4
  -9   1   4 1309.39 725.215   4
  -9   1   5 10218.5 1022.83   4
  -9   1   6-779.561 673.269   4
  -9   1   7 11750.3 1129.38   4
  -9   1   8 879.898 632.670   4
  -9   1   9 15317.1 1282.90   4
  -9   1  10 3136.58 851.773   4
  -9   1  11 5928.10 1014.40   4
  -9   1  12 2405.66 840.782   4
  -9   1  13 3659.09 979.047   4
  -9   1  14 3726.66 1003.74   4
  -9   1  15 1739.45 928.907   4
  -9   1  16 3357.66 1058.00   4
  -9   2 -13 1729.77 967.009   1
  -9   2 -12 604.815 811.965   1
  -9   2 -11 2230.19 896.413   1
  -9   2   1 10277.2 1027.85   4
  -9   2   2 13224.8 1046.11   4
  -9   2   3 1261.23 614.881   4
  -9   2   4 11214.5 950.095   4
  -9   2   5 2282.23 616.318   4
  -9   2   6 14647.4 1090.22   4
  -9   2   7 577.505 576.062   4
  -9   2   8 11218.8 1059.60   4
  -9   2   9 313.994 624.951   4
  -9   2  10 6724.03 951.232   4
  -9   2  11 231.728 647.215   4
  -9   2  12 2060.15 817.543   4
  -9   2  13 816.789 761.701   4
  -9   2  14 705.523 797.636   4
  -9   3 -13 5595.47 1216.05   1
  -9   3 -12 1122.85 870.634   1
  -9   3 -11 5827.55 1119.15   1
  -9   3 -10 2031.32 859.812   1
  -9   3  -9 5105.28 1000.94   1
  -9   3  -8 3572.33 853.809   1
  -9   3  -7 1443.04 687.837   1
  -9   3  -6 4050.43 822.008   1
  -9   3  -5 1903.80 615.483   1
  -9   3  -4 6132.35 793.822   1
  -9   4 -13 897.967 930.551   1
  -9   4 -12 7490.00 1297.53   1
  -9   4 -11 2767.75 920.114   1
  -9   4 -10 5377.58 1063.20   1
  -9   4  -9 3551.47 900.343   1
  -9   4  -8 3006.40 833.201   1
  -9   4  -7 3075.96 770.155   1
  -9   4  -6 3567.93 785.370   1
  -9   5 -13 8892.06 1385.25   1
  -9   5 -12 886.705 806.983   1
  -9   5 -11 6162.16 1160.15   1
  -9   5 -10 1667.01 805.612   1
  -9   5  -9 4190.59 934.384   1
  -9   6 -13-2770.99 1225.38   1
  -8 -10   7 1705.33 1037.29   5
  -8 -10   8 4438.72 1164.45   5
  -8  -9   2 5085.69 1161.95   5
  -8  -9   3-440.136 906.467   5
  -8  -9   4 2580.78 1019.87   5
  -8  -9   5 2668.22 1027.55   5
  -8  -9   6 2889.49 990.186   5
  -8  -9   7 1644.83 926.101   5
  -8  -9   8 1494.49 882.878   5
  -8  -9   9 3986.20 1061.59   5
  -8  -8  -2 2703.85 1099.82   5
  -8  -8  -1 5841.17 1259.94   5
  -8  -8   0 109.115 846.291   5
  -8  -8   1 6232.44 1215.51   5
  -8  -8   2-52.9520 854.459   5
  -8  -8   3 1783.92 899.181   5
  -8  -8   4 2923.46 991.342   5
  -8  -8   5 5709.35 1111.42   5
  -8  -8   6 2314.40 927.491   5
  -8  -8   7 7492.05 1191.19   5
  -8  -8   8 3665.64 981.417   5
  -8  -8   9 4304.38 1029.38   5
  -8  -8  10 12619.5 1780.48   4
  -8  -7  -4 2295.82 986.759   5
  -8  -7  -3 3696.93 1047.07   5
  -8  -7  -2 4381.09 1109.36   5
  -8  -7  -1 3329.01 1029.43   5
  -8  -7   0 5028.20 1098.86   5
  -8  -7   1 2563.38 912.356   5
  -8  -7   2 4081.86 1023.98   5
  -8  -7   3 122.900 786.578   5
  -8  -7   4 3832.87 921.273   5
  -8  -7   5 2819.40 886.507   5
  -8  -7   6 9274.03 1212.22   5
  -8  -7   7 1983.47 833.792   5
  -8  -7   8 5424.54 1008.11   5
  -8  -7   9 3903.64 918.831   5
  -8  -7  10 7909.63 1477.08   4
  -8  -7  11 7903.30 1480.86   4
  -8  -7  12 1769.77 1116.82   4
  -8  -7  13 5412.60 1326.83   4
  -8  -6  -7-260.080 841.655   5
  -8  -6  -6 3470.95 997.862   5
  -8  -6  -5 240.022 766.325   5
  -8  -6  -4 3759.47 991.745   5
  -8  -6  -3 1661.09 855.345   5
  -8  -6  -2 4953.00 1061.84   5
  -8  -6  -1 3945.20 981.394   5
  -8  -6   0 3376.53 913.664   5
  -8  -6   1 7717.61 1136.56   5
  -8  -6   2 2838.89 856.232   5
  -8  -6   3 10971.3 1243.81   5
  -8  -6   4 3008.70 830.254   5
  -8  -6   5 13449.8 1323.89   5
  -8  -6   6 3930.74 930.406   5
  -8  -6   7 12231.2 1256.71   5
  -8  -6   8 550.793 653.450   5
  -8  -6   9 7446.37 1020.36   5
  -8  -6   9 13636.6 1669.40   4
  -8  -6  10 4212.94 1268.10   4
  -8  -6  11 6387.65 1345.60   4
  -8  -6  12 3352.28 1172.77   4
  -8  -6  13 634.098 975.297   4
  -8  -6  14 1961.21 1051.20   4
  -8  -5  -9 4312.99 1130.15   5
  -8  -5  -8 307.311 797.424   5
  -8  -5  -7 5512.57 1124.52   5
  -8  -5  -6 44.2412 721.541   5
  -8  -5  -5 6891.92 1157.84   5
  -8  -5  -4 648.076 764.590   5
  -8  -5  -3 6759.56 1047.69   5
  -8  -5  -2 1403.79 777.076   5
  -8  -5  -1 10243.2 1230.56   5
  -8  -5   0 2190.16 765.808   5
  -8  -5   1 6946.50 1028.08   5
  -8  -5   2 7756.17 1086.03   5
  -8  -5   3 9143.05 1113.81   5
  -8  -5   4 17385.0 1388.36   5
  -8  -5   5 4583.55 850.178   5
  -8  -5   6 11759.1 1156.19   5
  -8  -5   7 548.845 572.116   5
  -8  -5   8 6345.88 879.994   5
  -8  -5   9 3617.81 1154.19   4
  -8  -5   9 470.848 585.476   5
  -8  -5  10 8673.92 1394.24   4
  -8  -5  11 4263.90 1216.38   4
  -8  -5  12 3897.51 1114.18   4
  -8  -5  13 4957.72 1208.72   4
  -8  -5  14 919.010 936.731   4
  -8  -5  15 4020.27 1174.69   4
  -8  -4 -11 2616.55 954.541   5
  -8  -4 -10 836.200 824.550   5
  -8  -4  -9 1692.52 818.042   5
  -8  -4  -8 7281.11 1227.52   5
  -8  -4  -7 974.110 765.607   5
  -8  -4  -6 8670.28 1260.12   5
  -8  -4  -5 274.884 713.719   5
  -8  -4  -4 9329.91 1246.49   5
  -8  -4  -3 1013.82 771.600   5
  -8  -4  -2 12033.3 1323.40   5
  -8  -4  -1 846.687 746.616   5
  -8  -4   0 15437.7 1426.90   5
  -8  -4   1 5127.88 967.560   5
  -8  -4   2 14565.4 1347.24   5
  -8  -4   3 22981.8 1591.20   5
  -8  -4   4 8137.42 1060.58   5
  -8  -4   5 17381.3 1362.57   5
  -8  -4   6 2235.88 736.611   5
  -8  -4   7 3843.09 748.296   5
  -8  -4   8 67.2917 538.925   5
  -8  -4   8 2253.56 999.685   4
  -8  -4   9 15008.6 1581.86   4
  -8  -4   9 13063.5 1078.71   5
  -8  -4  10 1609.55 964.166   4
  -8  -4  11 8837.79 1376.60   4
  -8  -4  12 5683.52 1196.72   4
  -8  -4  13 6879.36 1236.86   4
  -8  -4  14 1010.00 902.435   4
  -8  -4  15 3115.20 1058.51   4
  -8  -4  16 3345.13 1098.69   4
  -8  -3 -12 7254.05 1254.40   5
  -8  -3 -11 258.773 794.388   5
  -8  -3 -10 3853.62 1053.86   5
  -8  -3  -9 1671.20 887.684   5
  -8  -3  -8 6728.71 1177.63   5
  -8  -3  -7 5370.97 1099.37   5
  -8  -3  -6 1241.71 821.881   5
  -8  -3  -5 8559.74 1210.80   5
  -8  -3  -4 1829.38 834.684   5
  -8  -3  -3 8819.07 1164.46   5
  -8  -3  -2 350.216 676.428   5
  -8  -3  -1 9521.71 1172.57   5
  -8  -3   0 7567.89 1080.24   5
  -8  -3   1 18212.9 1476.90   5
  -8  -3   2 17178.3 1401.36   5
  -8  -3   3 19911.1 1465.13   5
  -8  -3   4 28987.1 1698.13   5
  -8  -3   5 8482.88 1061.12   5
  -8  -3   6 6799.79 926.615   5
  -8  -3   7 6676.67 1176.26   4
  -8  -3   7 3313.80 749.599   5
  -8  -3   8 16467.3 1250.04   5
  -8  -3   8 17985.9 1622.87   4
  -8  -3   9 595.258 824.186   4
  -8  -3   9 539.972 529.183   5
  -8  -3  10 9691.63 1327.88   4
  -8  -3  11 5283.35 1151.34   4
  -8  -3  12 5569.82 1120.47   4
  -8  -3  13 2297.50 920.996   4
  -8  -3  14 4055.55 1144.99   4
  -8  -3  15 884.430 874.856   4
  -8  -3  16 792.810 911.692   4
  -8  -2 -14 89.2579 851.256   5
  -8  -2 -13 3976.34 1071.53   5
  -8  -2 -12-32.7277 817.267   5
  -8  -2 -11 1776.95 954.882   5
  -8  -2 -10 267.093 788.627   5
  -8  -2  -9 6610.43 1189.60   5
  -8  -2  -8 10314.1 1324.70   5
  -8  -2  -7 5061.11 1044.52   5
  -8  -2  -6 19579.2 1694.66   5
  -8  -2  -5 1188.71 786.279   5
  -8  -2  -4 23208.1 1731.68   5
  -8  -2  -3 2543.11 858.985   5
  -8  -2  -2 12360.2 1271.34   5
  -8  -2  -1 91.1791 682.780   5
  -8  -2   0 17464.8 1426.74   5
  -8  -2   5 5042.84 853.533   5
  -8  -2   6 3474.41 749.912   5
  -8  -2   6 7589.26 1146.25   4
  -8  -2   7 10205.2 1260.82   4
  -8  -2   7 8465.15 972.202   5
  -8  -2   8 2410.19 856.953   4
  -8  -2   8 1452.90 595.940   5
  -8  -2   9 11608.0 1031.64   5
  -8  -2   9 10624.0 1272.76   4
  -8  -2  10-1014.49 842.442   4
  -8  -2  11 6020.78 1102.05   4
  -8  -2  12 2133.55 886.198   4
  -8  -2  13 10086.7 1349.10   4
  -8  -2  14 652.184 795.207   4
  -8  -2  15 1612.57 881.468   4
  -8  -2  16 388.209 836.402   4
  -8  -1 -15 334.070 895.777   5
  -8  -1 -14 5574.98 1211.58   5
  -8  -1 -13-695.329 845.723   5
  -8  -1 -12 5694.39 1161.36   5
  -8  -1 -11 99.1460 771.882   5
  -8  -1 -10 7983.43 1283.77   5
  -8  -1  -9 3273.97 959.639   5
  -8  -1  -8 12889.8 1436.76   5
  -8  -1  -7 8418.86 1202.56   5
  -8  -1   5 16296.6 1374.41   4
  -8  -1   6 10379.1 1162.32   4
  -8  -1   7 4673.22 944.118   4
  -8  -1   8 8319.13 1064.49   4
  -8  -1   9-501.367 759.835   4
  -8  -1  10 8846.44 1161.62   4
  -8  -1  11 2109.28 809.005   4
  -8  -1  12 5792.54 1043.52   4
  -8  -1  13 745.606 727.043   4
  -8  -1  14 5544.34 1061.80   4
  -8  -1  15 139.682 751.389   4
  -8  -1  16 2965.19 1002.34   4
  -8   0 -15 2347.19 1079.99   5
  -8   0 -14 1361.64 943.516   5
  -8   0 -13 6429.53 1211.24   5
  -8   0 -12 545.723 833.018   5
  -8   0 -11 8498.62 1308.89   5
  -8   0   4 17158.6 1289.25   4
  -8   0   5 3280.25 824.347   4
  -8   0   6 10178.3 1078.77   4
  -8   0   7 1830.54 654.925   4
  -8   0   8-472.211 741.443   4
  -8   0   9 4368.14 867.182   4
  -8   0  10 913.978 648.683   4
  -8   0  11 6586.02 1034.29   4
  -8   0  12 615.659 734.810   4
  -8   0  13 9261.21 1215.58   4
  -8   0  14 791.234 774.276   4
  -8   0  15 4468.59 1051.87   4
  -8   0  16-87.9708 807.403   4
  -8   1 -15 3041.43 1055.82   5
  -8   1 -14 4428.06 1124.66   5
  -8   1 -13 1577.01 902.864   5
  -8   1   3 23478.8 1348.99   4
  -8   1   4 3955.92 801.120   4
  -8   1   5 18554.5 1224.91   4
  -8   1   6 5710.83 797.260   4
  -8   1   7 13768.8 1127.01   4
  -8   1   8 3639.64 760.341   4
  -8   1   9 14281.6 1204.97   4
  -8   1  10 5797.58 923.077   4
  -8   1  11 7430.78 1056.69   4
  -8   1  12 6545.98 1046.79   4
  -8   1  13 1412.44 799.027   4
  -8   1  14 5389.42 1054.66   4
  -8   1  15 295.581 803.152   4
  -8   1  16 3241.92 1019.95   4
  -8   2 -14 1478.13 953.119   1
  -8   2 -13 169.174 774.710   1
  -8   2 -12-643.179 824.163   1
  -8   2   2 25248.1 1304.79   4
  -8   2   3 4701.27 689.695   4
  -8   2   4 10305.3 855.926   4
  -8   2   5 4240.75 653.850   4
  -8   2   6 3283.45 627.602   4
  -8   2   7 59.5788 460.434   4
  -8   2   8 3738.68 696.522   4
  -8   2   9 1985.35 699.548   4
  -8   2  10 2322.41 737.902   4
  -8   2  11 4279.71 860.684   4
  -8   2  12 969.127 736.337   4
  -8   2  13 4918.48 965.096   4
  -8   2  14-10.8962 712.106   4
  -8   3 -14 2506.02 999.111   1
  -8   3 -13 2936.22 1002.45   1
  -8   3 -12 5203.42 1095.52   1
  -8   3 -11 286.240 700.424   1
  -8   3 -10 9224.46 1218.22   1
  -8   3  -9 2893.86 834.996   1
  -8   3  -8 12496.8 1240.58   1
  -8   3  -7 1202.42 649.292   1
  -8   3  -6 21956.3 1429.69   1
  -8   3  -5 1006.39 534.402   1
  -8   3  -4 19892.8 1206.21   1
  -8   3  -3 4920.87 659.077   1
  -8   3  -2 16630.7 979.633   1
  -8   3  -1 10471.0 738.222   1
  -8   3   0 9188.96 634.937   1
  -8   3   0 5269.72 644.100   4
  -8   3   1 534.001 501.990   4
  -8   3   2 1373.03 442.877   4
  -8   3   3 6087.83 603.481   4
  -8   3   4 810.694 414.105   4
  -8   3   5 5999.10 657.713   4
  -8   3   6 1796.48 521.131   4
  -8   3   7 5172.38 726.609   4
  -8   3   8 2694.43 656.013   4
  -8   3   9 6317.62 877.819   4
  -8   3  10 4222.69 812.480   4
  -8   3  11 6180.90 936.593   4
  -8   4 -14 5846.23 1227.84   1
  -8   4 -13 2790.20 1001.33   1
  -8   4 -12 4073.60 1019.41   1
  -8   4 -11 3559.72 966.942   1
  -8   4 -10 1445.73 783.842   1
  -8   4  -9 8698.92 1152.32   1
  -8   4  -8 477.652 623.294   1
  -8   4  -7 11908.5 1145.64   1
  -8   4  -6 1128.92 609.891   1
  -8   4  -5 15619.0 1138.06   1
  -8   4  -4 921.681 500.063   1
  -8   4  -3 16831.4 1014.98   1
  -8   4  -2 9734.18 787.107   1
  -8   5 -14 571.001 875.756   1
  -8   5 -13 8451.33 1301.36   1
  -8   5 -12 4334.14 1023.96   1
  -8   5 -11 3272.33 932.365   1
  -8   5 -10 3592.58 896.914   1
  -8   5  -9 1415.50 721.403   1
  -8   5  -8 7003.76 987.497   1
  -8   5  -7-139.955 634.880   1
  -8   5  -6 7433.78 914.173   1
  -8   5  -5-1093.80 661.251   1
  -8   6 -14 8307.39 1499.23   1
  -8   6 -13-659.201 1027.14   1
  -8   6 -12 2204.33 994.625   1
  -8   6 -11 271.938 867.506   1
  -8   6 -10 2588.89 953.518   1
  -8   6  -9 2108.15 871.432   1
  -8   6  -8 2458.18 810.484   1
  -8   6  -7 6494.97 1013.22   1
  -8   7 -14-879.223 1126.37   1
  -8   7 -13 2976.23 1203.74   1
  -8   7 -12-862.930 966.821   1
  -8   7 -11 3260.29 1114.55   1
  -8   7 -10 1177.58 910.261   1
  -7 -10   3 2864.41 1132.08   5
  -7 -10   4 7036.89 1311.59   5
  -7 -10   5 2481.39 1086.78   5
  -7 -10   6 10447.9 1518.83   5
  -7 -10   7 3464.23 1106.84   5
  -7 -10   8 9379.91 1420.38   5
  -7 -10   9 2521.21 1009.84   5
  -7  -9  -1 2040.24 1000.76   5
  -7  -9   0 4294.59 1138.57   5
  -7  -9   1 2360.21 1016.58   5
  -7  -9   2 3397.87 1051.28   5
  -7  -9   3 1599.28 902.156   5
  -7  -9   4 3547.86 1089.29   5
  -7  -9   5 8258.75 1309.07   5
  -7  -9   6 6033.50 1163.13   5
  -7  -9   7 7769.20 1260.29   5
  -7  -9   8 2399.21 916.605   5
  -7  -9   9 6124.24 1141.15   5
  -7  -9  10 8097.74 1590.67   4
  -7  -9  11 9681.00 1659.46   4
  -7  -8  -4 2199.65 1034.20   5
  -7  -8  -3 8091.33 1398.51   5
  -7  -8  -2 323.701 803.778   5
  -7  -8  -1 7207.08 1263.64   5
  -7  -8   0 398.064 782.458   5
  -7  -8   1 6497.91 1191.11   5
  -7  -8   2 160.263 754.253   5
  -7  -8   3 3722.27 997.532   5
  -7  -8   4 1770.87 871.352   5
  -7  -8   5 2910.24 906.316   5
  -7  -8   6 4754.96 992.751   5
  -7  -8   7 4586.69 976.524   5
  -7  -8   8 5724.95 1042.20   5
  -7  -8   9 1580.87 798.382   5
  -7  -8  10 17079.3 1882.00   4
  -7  -8  11 3102.75 1245.56   4
  -7  -8  12 9712.35 1622.78   4
  -7  -8  13 491.990 1077.90   4
  -7  -7  -7 4778.08 1198.57   5
  -7  -7  -6 1925.20 966.521   5
  -7  -7  -5 1644.42 922.693   5
  -7  -7  -4 4570.51 1100.27   5
  -7  -7  -3 2041.92 912.704   5
  -7  -7  -2 3134.54 963.927   5
  -7  -7  -1 217.399 738.862   5
  -7  -7   0 10052.7 1282.14   5
  -7  -7   1-26.8660 703.717   5
  -7  -7   2 4505.78 980.078   5
  -7  -7   3 646.895 713.260   5
  -7  -7   4 5062.67 988.067   5
  -7  -7   5 7294.95 1090.51   5
  -7  -7   6 11724.1 1289.51   5
  -7  -7   7 8415.77 1128.65   5
  -7  -7   8 9516.58 1144.27   5
  -7  -7   9 14628.0 1333.82   5
  -7  -7  10 9052.37 1520.99   4
  -7  -7  10 3797.51 835.630   5
  -7  -7  11 12229.7 1660.12   4
  -7  -7  12 1927.36 1103.73   4
  -7  -7  13 4764.55 1239.39   4
  -7  -7  14-760.723 1029.44   4
  -7  -6  -9 111.919 844.522   5
  -7  -6  -8 7057.84 1263.48   5
  -7  -6  -7 1273.67 856.242   5
  -7  -6  -6 3612.80 988.826   5
  -7  -6  -5 4307.37 1010.95   5
  -7  -6  -4 3276.27 900.688   5
  -7  -6  -3 3457.23 916.610   5
  -7  -6  -2 3045.53 867.134   5
  -7  -6  -1 10039.0 1240.96   5
  -7  -6   0 3343.25 872.583   5
  -7  -6   1 11241.2 1254.15   5
  -7  -6   2 193.897 638.958   5
  -7  -6   3 8540.77 1090.68   5
  -7  -6   4 3747.65 847.595   5
  -7  -6   5 14781.9 1305.07   5
  -7  -6   6 5996.06 931.242   5
  -7  -6   7 16101.6 1320.76   5
  -7  -6   8 9713.49 1092.65   5
  -7  -6   9 10244.2 1111.36   5
  -7  -6   9 13440.8 1602.00   4
  -7  -6  10 11958.0 1106.36   5
  -7  -6  10 13327.4 1628.49   4
  -7  -6  11 4768.99 1226.09   4
  -7  -6  12 4681.54 1207.33   4
  -7  -6  13 389.004 864.307   4
  -7  -6  14 1361.50 945.139   4
  -7  -6  15-1653.81 1060.10   4
  -7  -5 -11 5274.00 1185.17   5
  -7  -5 -10 407.733 781.766   5
  -7  -5  -9 10182.1 1375.02   5
  -7  -5  -8 365.739 790.635   5
  -7  -5  -7 8248.92 1213.08   5
  -7  -5  -6 57.7445 712.422   5
  -7  -5  -5 5560.80 1030.87   5
  -7  -5  -4 226.526 649.351   5
  -7  -5  -3 4776.03 975.563   5
  -7  -5  -2 1947.15 745.551   5
  -7  -5  -1 8753.44 1108.22   5
  -7  -5   0 17759.0 1403.52   5
  -7  -5   1 1372.47 666.322   5
  -7  -5   2 17352.5 1329.82   5
  -7  -5   3 2263.91 692.975   5
  -7  -5   4 18771.6 1347.90   5
  -7  -5   5 6565.95 916.731   5
  -7  -5   6 18252.1 1288.28   5
  -7  -5   7 2810.15 708.789   5
  -7  -5   8 12434.1 1083.61   5
  -7  -5   9 6858.79 1246.63   4
  -7  -5   9 4244.05 750.052   5
  -7  -5  10 7885.94 870.952   5
  -7  -5  10 8247.08 1295.89   4
  -7  -5  11 3980.93 1065.66   4
  -7  -5  12 1988.36 964.273   4
  -7  -5  13 3458.81 1056.31   4
  -7  -5  14-190.923 850.988   4
  -7  -5  15 4604.31 1150.06   4
  -7  -5  16 1053.04 962.667   4
  -7  -4 -13 1130.78 911.679   5
  -7  -4 -12 3495.70 1033.81   5
  -7  -4 -11 442.333 771.212   5
  -7  -4 -10 4718.80 1044.31   5
  -7  -4  -9 305.621 747.156   5
  -7  -4  -8 6157.11 1078.79   5
  -7  -4  -7-101.790 679.077   5
  -7  -4  -6 7962.09 1133.65   5
  -7  -4  -5 514.480 714.412   5
  -7  -4  -4 11595.0 1259.56   5
  -7  -4  -3 2457.48 824.566   5
  -7  -4  -2 16279.8 1406.84   5
  -7  -4  -1 14017.1 1330.83   5
  -7  -4   0 5851.85 965.938   5
  -7  -4   1 35522.9 1883.92   5
  -7  -4   2 3393.49 833.792   5
  -7  -4   3 25303.6 1537.51   5
  -7  -4   4 8733.14 1016.06   5
  -7  -4   5 23905.8 1427.07   5
  -7  -4   6 2845.44 683.024   5
  -7  -4   7 12871.8 1033.90   5
  -7  -4   8 79.9659 459.500   5
  -7  -4   8 1980.04 924.132   4
  -7  -4   9 14564.4 1049.60   5
  -7  -4   9 15294.6 1544.90   4
  -7  -4  10 1998.21 886.166   4
  -7  -4  10 2546.75 558.792   5
  -7  -4  11 4467.07 1017.36   4
  -7  -4  12 6523.71 1183.48   4
  -7  -4  13 1855.58 973.771   4
  -7  -4  14 5322.18 1159.61   4
  -7  -4  15 210.218 819.318   4
  -7  -4  16 3139.87 1023.23   4
  -7  -4  17 209.182 863.449   4
  -7  -3 -15 939.194 905.721   5
  -7  -3 -14 1764.67 869.313   5
  -7  -3 -13 1383.26 837.044   5
  -7  -3 -12 3737.53 972.371   5
  -7  -3 -11 2069.83 865.080   5
  -7  -3 -10 1125.96 783.201   5
  -7  -3  -9 7020.60 1120.04   5
  -7  -3  -8 235.507 699.912   5
  -7  -3  -7 13119.9 1339.93   5
  -7  -3  -6-75.4468 680.622   5
  -7  -3  -5 18833.6 1537.37   5
  -7  -3  -4 1717.71 746.619   5
  -7  -3  -3 21218.5 1557.18   5
  -7  -3  -2 1425.87 695.362   5
  -7  -3  -1 7760.72 1023.78   5
  -7  -3   0 10860.4 1103.80   5
  -7  -3   1 5103.20 843.399   5
  -7  -3   2 23475.8 1469.77   5
  -7  -3   3 5454.63 858.029   5
  -7  -3   4 28895.4 1560.19   5
  -7  -3   5 2253.55 658.674   5
  -7  -3   6 9692.90 955.267   5
  -7  -3   7 484.025 512.816   5
  -7  -3   7 2501.31 875.586   4
  -7  -3   8 16701.7 1125.28   5
  -7  -3   8 18312.6 1571.40   4
  -7  -3   9 774.249 490.077   5
  -7  -3   9 1101.86 807.523   4
  -7  -3  10 13170.3 1393.82   4
  -7  -3  10 13619.8 916.194   5
  -7  -3  11 8018.63 1174.86   4
  -7  -3  12 3439.27 1017.79   4
  -7  -3  13 2724.52 917.051   4
  -7  -3  14 7149.01 1207.45   4
  -7  -3  15 2102.60 884.380   4
  -7  -3  16 881.261 840.623   4
  -7  -3  17 5296.09 1195.94   4
  -7  -2 -15 2360.01 983.879   5
  -7  -2 -14 795.879 790.463   5
  -7  -2 -13 6229.09 1157.68   5
  -7  -2 -12 2103.90 894.171   5
  -7  -2 -11 3797.22 966.702   5
  -7  -2 -10 4195.10 983.395   5
  -7  -2  -9 1723.46 802.257   5
  -7  -2  -8 18593.4 1569.67   5
  -7  -2  -7 1192.80 749.770   5
  -7  -2  -6 18762.3 1542.28   5
  -7  -2  -5 2286.97 800.263   5
  -7  -2  -4 14510.6 1300.55   5
  -7  -2  -3 200.581 594.937   5
  -7  -2  -2 11616.2 1191.24   5
  -7  -2  -1 973.829 623.258   5
  -7  -2   0 12083.1 1145.81   5
  -7  -2   6 1757.38 586.129   5
  -7  -2   6 5126.33 955.573   4
  -7  -2   7 11643.6 991.783   5
  -7  -2   7 12663.1 1256.90   4
  -7  -2   8 563.641 469.688   5
  -7  -2   8 1082.55 727.588   4
  -7  -2   9 13596.2 980.062   5
  -7  -2   9 13492.5 1300.53   4
  -7  -2  10 1070.12 454.621   5
  -7  -2  10-263.459 746.239   4
  -7  -2  11 6789.09 1107.65   4
  -7  -2  12 2555.83 841.580   4
  -7  -2  13 6651.61 1131.04   4
  -7  -2  14 878.378 757.621   4
  -7  -2  15 2175.86 879.961   4
  -7  -2  16 3006.98 974.195   4
  -7  -2  17-471.939 848.069   4
  -7  -1 -15 357.658 831.983   5
  -7  -1 -14 8312.82 1272.30   5
  -7  -1 -13 1615.68 856.637   5
  -7  -1 -12 9971.44 1300.04   5
  -7  -1 -11 867.768 752.765   5
  -7  -1 -10 3268.29 920.720   5
  -7  -1  -9 12399.7 1330.15   5
  -7  -1  -8 5687.15 1005.17   5
  -7  -1  -7 17948.8 1490.75   5
  -7  -1   5 7760.39 974.217   4
  -7  -1   6 19477.7 1398.66   4
  -7  -1   7 377.177 633.191   4
  -7  -1   8 11572.9 1127.34   4
  -7  -1   9-742.049 714.212   4
  -7  -1  10 14089.1 1296.32   4
  -7  -1  11 4073.02 860.866   4
  -7  -1  12 14120.5 1348.40   4
  -7  -1  13 762.973 706.594   4
  -7  -1  14 4656.17 984.300   4
  -7  -1  15 2181.88 886.440   4
  -7  -1  16 2205.91 916.711   4
  -7  -1  17 2480.14 972.879   4
  -7   0 -15 4664.62 1113.03   5
  -7   0 -14 360.394 763.767   5
  -7   0 -13 10528.3 1330.22   5
  -7   0 -12 353.780 740.866   5
  -7   0 -11 7011.89 1133.97   5
  -7   0   4 18034.3 1243.96   4
  -7   0   5 19249.1 1288.36   4
  -7   0   6 1001.83 594.759   4
  -7   0   6 1043.48 375.930   1
  -7   0   7 14290.7 1127.54   4
  -7   0   8-188.139 577.423   4
  -7   0   9 9467.11 1022.91   4
  -7   0  10 1455.44 678.592   4
  -7   0  11 14182.5 1263.28   4
  -7   0  12 718.293 633.823   4
  -7   0  13 8540.66 1148.60   4
  -7   0  14 421.839 690.327   4
  -7   0  15 2396.68 895.680   4
  -7   0  16 1609.34 875.908   4
  -7   0  17 1772.63 927.849   4
  -7   1 -15 1954.80 954.178   1
  -7   1 -15 1016.03 836.803   5
  -7   1 -14 6765.87 1157.76   5
  -7   1   3 30794.2 1420.62   4
  -7   1   4 11211.6 938.387   4
  -7   1   5 8704.02 848.442   4
  -7   1   5 3739.31 279.414   1
  -7   1   6 6980.13 810.590   4
  -7   1   7 3853.47 688.772   4
  -7   1   8 8522.50 926.036   4
  -7   1   9 5437.68 829.745   4
  -7   1  10 8791.07 1010.72   4
  -7   1  11 4968.83 935.657   4
  -7   1  12 11489.7 1208.20   4
  -7   1  13 1383.22 775.339   4
  -7   1  14 2435.89 824.404   4
  -7   1  15 1006.59 792.895   4
  -7   1  16 2426.14 940.504   4
  -7   2 -15 1330.33 901.364   1
  -7   2 -14-282.109 805.393   1
  -7   2 -13 5325.41 1096.57   1
  -7   2 -12 2318.58 840.230   1
  -7   2   2 7123.79 720.076   4
  -7   2   3 266.620 455.902   4
  -7   2   4 3314.14 542.433   4
  -7   2   5 7028.92 695.420   4
  -7   2   6 4733.79 642.709   4
  -7   2   7 10738.3 913.176   4
  -7   2   8 4750.93 736.786   4
  -7   2   9 13215.3 1090.11   4
  -7   2  10 4300.04 802.541   4
  -7   2  11 11893.7 1167.18   4
  -7   2  12 26.9202 640.731   4
  -7   2  13 4411.09 899.210   4
  -7   3 -15 992.716 850.252   1
  -7   3 -14 7694.17 1265.58   1
  -7   3 -13 873.358 749.177   1
  -7   3 -12 13684.1 1489.41   1
  -7   3 -11 1249.57 728.627   1
  -7   3 -10 18835.7 1555.82   1
  -7   3  -9 1489.56 661.662   1
  -7   3  -8 21846.0 1516.82   1
  -7   3  -7 301.885 516.007   1
  -7   3  -6 18369.9 1249.25   1
  -7   3  -5 7150.47 802.516   1
  -7   3  -4 485.124 405.561   1
  -7   3  -3 5147.07 607.860   1
  -7   3  -2 1459.34 432.531   1
  -7   3  -1 16754.0 829.204   1
  -7   3   0 5511.20 475.885   1
  -7   3   0 1821.71 431.069   4
  -7   3   1 5521.78 510.618   4
  -7   3   1 8203.01 453.235   1
  -7   3   2 2072.47 420.349   4
  -7   3   3 11443.2 714.117   4
  -7   3   4 1304.63 411.053   4
  -7   3   5 17106.3 952.892   4
  -7   3   6 4020.62 585.891   4
  -7   3   7 14872.3 1019.75   4
  -7   3   8 7202.93 854.692   4
  -7   3   9 8086.95 932.404   4
  -7   3  10 3739.45 752.918   4
  -7   4 -15 2340.01 985.154   1
  -7   4 -14 1237.50 882.752   1
  -7   4 -13 8123.62 1244.41   1
  -7   4 -12 2779.05 888.341   1
  -7   4 -11 16249.8 1498.98   1
  -7   4 -10 1180.67 689.794   1
  -7   4  -9 19802.7 1486.51   1
  -7   4  -8-435.711 591.812   1
  -7   4  -7 13875.1 1161.73   1
  -7   4  -6 1082.08 535.383   1
  -7   4  -5 9343.02 875.538   1
  -7   4  -4 714.873 444.175   1
  -7   4  -3 3088.72 513.256   1
  -7   4  -2 8940.91 717.561   1
  -7   4  -1 11098.1 720.531   1
  -7   4   2 5252.24 421.673   4
  -7   4   3 549.763 330.818   4
  -7   5 -15 1438.08 920.557   1
  -7   5 -14 2169.51 904.431   1
  -7   5 -13 3833.42 984.791   1
  -7   5 -12 5796.07 1053.36   1
  -7   5 -11 2384.54 789.063   1
  -7   5 -10 8835.23 1135.48   1
  -7   5  -9 168.595 633.106   1
  -7   5  -8 4193.15 824.460   1
  -7   5  -7-1292.86 684.640   1
  -7   5  -6 8775.11 942.245   1
  -7   5  -5-630.814 587.757   1
  -7   5  -4 11428.8 963.209   1
  -7   5  -3 8687.69 825.027   1
  -7   5  -2 16484.6 953.352   1
  -7   6 -15 342.751 1019.64   1
  -7   6 -14 2103.86 1036.03   1
  -7   6 -13 3114.83 1052.14   1
  -7   6 -12 2217.81 936.810   1
  -7   6 -11 6330.11 1171.68   1
  -7   6 -10 820.613 796.849   1
  -7   6  -9 8753.13 1195.06   1
  -7   6  -8 1204.05 755.138   1
  -7   6  -7 15058.7 1331.82   1
  -7   6  -6 1293.22 666.349   1
  -7   6  -5 17362.4 1235.47   1
  -7   6  -4 4442.03 762.814   1
  -7   7 -14 144.801 1000.46   1
  -7   7 -13 5284.48 1219.14   1
  -7   7 -12 3118.03 1089.69   1
  -7   7 -11 4750.95 1138.51   1
  -7   7 -10 2844.13 995.023   1
  -7   7  -9 5418.75 1046.49   1
  -7   7  -8 11466.0 1225.74   1
  -7   7  -7 3253.29 854.056   1
  -7   8 -14 6728.99 1396.46   1
  -7   8 -13 2569.63 1117.86   1
  -7   8 -12 7628.73 1347.20   1
  -7   8 -11 4087.33 1119.34   1
  -7   8 -10 8981.71 1334.81   1
  -6 -11   6 3710.16 1184.48   5
  -6 -11   7 6211.07 1303.62   5
  -6 -11   8 3690.63 1140.64   5
  -6 -11   9 2711.70 1031.52   5
  -6 -10   1 1555.53 932.469   5
  -6 -10   2 8809.01 1410.11   5
  -6 -10   3 1108.21 925.303   5
  -6 -10   4 9989.99 1422.01   5
  -6 -10   5 2773.00 1072.00   5
  -6 -10   6 11196.8 1476.34   5
  -6 -10   7 1747.80 960.145   5
  -6 -10   8 6951.78 1234.67   5
  -6 -10   9 1399.67 882.667   5
  -6 -10  10 9096.56 1622.46   4
  -6 -10  10 3128.74 982.256   5
  -6 -10  11 7236.31 1549.84   4
  -6  -9  -3 828.137 908.909   5
  -6  -9  -2 5914.34 1227.23   5
  -6  -9  -1 523.019 840.655   5
  -6  -9   0 6445.32 1246.58   5
  -6  -9   1 3914.16 1070.26   5
  -6  -9   2 1704.30 899.870   5
  -6  -9   3 4146.61 1060.05   5
  -6  -9   4 3384.75 1005.61   5
  -6  -9   5 6724.85 1158.94   5
  -6  -9   6 1828.07 894.271   5
  -6  -9   7 9295.38 1254.40   5
  -6  -9   8 1604.98 847.167   5
  -6  -9   9 3261.59 921.625   5
  -6  -9  10 2295.94 851.423   5
  -6  -9  10 7018.72 1428.41   4
  -6  -9  11 6952.35 1491.03   4
  -6  -9  12 2911.10 1186.87   4
  -6  -9  13 3517.73 1250.24   4
  -6  -8  -6 646.291 806.869   5
  -6  -8  -5 4575.54 1120.05   5
  -6  -8  -4 483.095 798.954   5
  -6  -8  -3 7022.32 1245.54   5
  -6  -8  -2 1246.19 877.030   5
  -6  -8  -1 6057.59 1134.09   5
  -6  -8   0 3697.16 946.390   5
  -6  -8   1 5612.05 1065.63   5
  -6  -8   2 3183.91 891.600   5
  -6  -8   3 4098.18 972.471   5
  -6  -8   4 9796.12 1240.69   5
  -6  -8   5 6132.57 1052.52   5
  -6  -8   6 15039.9 1421.35   5
  -6  -8   7 2655.07 838.314   5
  -6  -8   8 11984.3 1301.04   5
  -6  -8   9 83.2277 673.741   5
  -6  -8  10 13897.6 1691.22   4
  -6  -8  10 9093.47 1130.55   5
  -6  -8  11 2129.55 1128.07   4
  -6  -8  12 5538.42 1333.66   4
  -6  -8  13 1572.35 1008.17   4
  -6  -8  14 2534.80 1103.86   4
  -6  -8  15-451.762 1080.71   4
  -6  -7  -9 4149.21 1121.27   5
  -6  -7  -8 1849.36 910.729   5
  -6  -7  -7 3294.92 1041.07   5
  -6  -7  -6 2883.09 977.445   5
  -6  -7  -5 419.922 801.106   5
  -6  -7  -4 10130.7 1347.73   5
  -6  -7  -3-99.4045 711.819   5
  -6  -7  -2 8791.18 1262.49   5
  -6  -7  -1 819.171 758.316   5
  -6  -7   0 10905.7 1276.01   5
  -6  -7   1 1206.45 700.012   5
  -6  -7   2 6538.63 1049.52   5
  -6  -7   3 2161.10 792.000   5
  -6  -7   4 5658.32 962.929   5
  -6  -7   5 13850.6 1296.44   5
  -6  -7   6 7802.63 1024.36   5
  -6  -7   7 14148.6 1288.61   5
  -6  -7   8 984.295 675.728   5
  -6  -7   9 22949.6 1525.15   5
  -6  -7  10 1454.33 690.683   5
  -6  -7  10 4264.40 1168.47   4
  -6  -7  11 15606.1 1727.67   4
  -6  -7  12 3010.89 1098.07   4
  -6  -7  13 10127.6 1467.59   4
  -6  -7  14 2492.54 1009.42   4
  -6  -7  15 2031.95 1035.25   4
  -6  -7  16 2950.93 1075.51   4
  -6  -6 -11 161.284 850.211   5
  -6  -6 -10 4332.51 1109.78   5
  -6  -6  -9 265.487 809.287   5
  -6  -6  -8 4404.47 1047.56   5
  -6  -6  -7 1389.59 827.404   5
  -6  -6  -6 806.984 751.471   5
  -6  -6  -5 5945.95 1095.47   5
  -6  -6  -4 415.013 716.410   5
  -6  -6  -3 19683.8 1656.99   5
  -6  -6  -2 2265.33 864.380   5
  -6  -6  -1 20829.3 1606.99   5
  -6  -6   0 6592.41 1034.89   5
  -6  -6   1 42898.7 2110.27   5
  -6  -6   2 3105.74 828.070   5
  -6  -6   3 30404.0 1768.72   5
  -6  -6   4 17882.4 1381.90   5
  -6  -6   5 50514.5 2142.51   5
  -6  -6   6 15440.8 1291.61   5
  -6  -6   7 22553.1 1466.76   5
  -6  -6   8 9231.21 1019.10   5
  -6  -6   9 12701.8 1489.12   4
  -6  -6   9 9313.32 979.833   5
  -6  -6  10 5412.99 793.746   5
  -6  -6  10 7945.77 1286.76   4
  -6  -6  11 2124.19 1046.88   4
  -6  -6  12 3735.17 1106.71   4
  -6  -6  13 1238.52 871.343   4
  -6  -6  14-703.148 966.497   4
  -6  -6  15 2624.91 983.743   4
  -6  -6  16-701.849 929.962   4
  -6  -6  17 5088.23 1201.27   4
  -6  -5 -13 3197.22 1103.01   5
  -6  -5 -12 483.172 832.947   5
  -6  -5 -11 5727.11 1163.59   5
  -6  -5 -10 609.151 781.243   5
  -6  -5  -9 5529.38 1088.93   5
  -6  -5  -8 1666.19 800.704   5
  -6  -5  -7 4601.34 937.670   5
  -6  -5  -6 6242.07 1023.71   5
  -6  -5  -5 6974.20 1065.59   5
  -6  -5  -4 25287.4 1709.17   5
  -6  -5  -3 5186.56 897.388   5
  -6  -5  -2 27311.1 1694.55   5
  -6  -5  -1 1335.51 647.741   5
  -6  -5   0 36310.3 1849.80   5
  -6  -5   1 2339.72 727.031   5
  -6  -5   2 16990.2 1273.99   5
  -6  -5   3 4194.89 791.692   5
  -6  -5   4 10213.5 986.370   5
  -6  -5   5 2897.13 673.477   5
  -6  -5   6 7201.59 853.635   5
  -6  -5   7 6665.46 812.694   5
  -6  -5   8 481.336 503.138   5
  -6  -5   9 14151.7 1462.51   4
  -6  -5   9 12456.0 996.737   5
  -6  -5  10 794.591 822.960   4
  -6  -5  10 1058.81 520.976   5
  -6  -5  11 12743.4 1462.74   4
  -6  -5  12 3339.59 1018.66   4
  -6  -5  13 7953.70 1238.29   4
  -6  -5  14 3572.47 1009.99   4
  -6  -5  15 10765.0 1414.11   4
  -6  -5  16 1720.93 914.623   4
  -6  -5  17 9751.58 1411.44   4
  -6  -4 -14 3070.54 995.864   5
  -6  -4 -13 93.4719 777.615   5
  -6  -4 -12 5654.99 1092.56   5
  -6  -4 -11-215.050 726.411   5
  -6  -4 -10 7009.79 1088.56   5
  -6  -4  -9-288.439 704.893   5
  -6  -4  -8 6390.48 1023.13   5
  -6  -4  -7 247.363 624.274   5
  -6  -4  -6 8239.33 1041.46   5
  -6  -4  -5 9577.65 1112.49   5
  -6  -4  -4 6641.32 974.349   5
  -6  -4  -3 18093.9 1408.97   5
  -6  -4  -2 1693.35 672.407   5
  -6  -4  -1 25304.4 1547.48   5
  -6  -4   0 593.137 553.543   5
  -6  -4   1 26962.7 1536.55   5
  -6  -4   2 1979.32 639.097   5
  -6  -4   3 23973.2 1386.04   5
  -6  -4   4 3608.56 696.696   5
  -6  -4   5 25357.2 1319.42   5
  -6  -4   6 12138.0 941.652   5
  -6  -4   7 7798.23 780.879   5
  -6  -4   8 9753.49 846.356   5
  -6  -4   8 12382.5 1334.50   4
  -6  -4   9 2792.06 528.604   5
  -6  -4   9 3628.97 926.622   4
  -6  -4  10 7389.42 1133.97   4
  -6  -4  10 7912.64 727.669   5
  -6  -4  11 7595.47 1170.40   4
  -6  -4  12 10197.5 1282.88   4
  -6  -4  13 1665.49 862.564   4
  -6  -4  14 10890.0 1345.39   4
  -6  -4  15-447.511 755.585   4
  -6  -4  16 4989.13 1083.67   4
  -6  -4  17-199.950 843.424   4
  -6  -4  18 4195.98 1133.09   4
  -6  -3 -15 2561.59 941.176   5
  -6  -3 -14 2209.98 849.680   5
  -6  -3 -13 4708.42 1016.82   5
  -6  -3 -12 861.155 687.421   5
  -6  -3 -11 7674.68 1075.19   5
  -6  -3 -10-137.453 641.743   5
  -6  -3  -9 8031.90 1089.12   5
  -6  -3  -8-602.678 673.842   5
  -6  -3  -7 10043.3 1148.53   5
  -6  -3  -6 2988.23 767.105   5
  -6  -3  -5 13806.6 1254.97   5
  -6  -3  -4 9170.33 1043.58   5
  -6  -3  -3 7805.24 971.856   5
  -6  -3  -2 19483.3 1362.89   5
  -6  -3  -1 8595.64 969.034   5
  -6  -3   0 21093.3 1342.38   5
  -6  -3   1 1739.45 661.826   5
  -6  -3   2 42603.9 1766.41   5
  -6  -3   3 14774.8 1088.96   5
  -6  -3   4 38548.7 1632.51   5
  -6  -3   5 5366.63 748.036   5
  -6  -3   6 18562.1 1118.00   5
  -6  -3   7 3896.33 901.693   4
  -6  -3   7 2302.95 547.951   5
  -6  -3   8 5522.28 977.455   4
  -6  -3   8 4160.37 589.677   5
  -6  -3   9 656.339 674.266   4
  -6  -3   9 827.598 385.204   5
  -6  -3  10 13806.2 1352.78   4
  -6  -3  10 15738.9 865.262   5
  -6  -3  11 9479.10 1186.24   4
  -6  -3  12 5803.27 1065.62   4
  -6  -3  13 11952.2 1320.04   4
  -6  -3  14 826.251 769.411   4
  -6  -3  15 6166.33 1095.28   4
  -6  -3  16-865.382 823.448   4
  -6  -3  17 4614.85 1100.99   4
  -6  -3  18 1001.41 892.151   4
  -6  -2 -15 2142.83 852.281   5
  -6  -2 -14 5192.27 984.926   5
  -6  -2 -13 4294.46 928.672   5
  -6  -2 -12 10768.3 1268.46   5
  -6  -2 -11-279.230 683.575   5
  -6  -2 -10 7128.57 1041.27   5
  -6  -2  -9 576.420 636.770   5
  -6  -2  -8 8469.11 1077.74   5
  -6  -2  -7-154.355 594.988   5
  -6  -2  -6 29386.4 1712.81   5
  -6  -2  -5 6980.13 990.233   5
  -6  -2  -4 28091.9 1634.19   5
  -6  -2  -3 4935.10 849.870   5
  -6  -2  -2 16022.8 1218.90   5
  -6  -2  -1 10896.1 1030.50   5
  -6  -2   0 14602.5 1118.92   5
  -6  -2   5 17764.7 1096.80   5
  -6  -2   6 1207.48 664.193   4
  -6  -2   6-147.049 453.394   5
  -6  -2   7 11375.2 1167.47   4
  -6  -2   7 12530.1 896.919   5
  -6  -2   8 867.362 401.494   5
  -6  -2   8 419.246 601.100   4
  -6  -2   9 11170.7 1131.72   4
  -6  -2   9 12544.9 816.950   5
  -6  -2  10 2693.12 743.016   4
  -6  -2  10 4051.77 494.932   5
  -6  -2  11 9534.67 1159.04   4
  -6  -2  12 18709.6 1493.53   4
  -6  -2  13 3241.03 888.983   4
  -6  -2  14 4781.93 1014.03   4
  -6  -2  15 330.141 740.177   4
  -6  -2  16 6734.00 1140.65   4
  -6  -2  17-128.886 781.822   4
  -6  -2  18 4088.48 1105.40   4
  -6  -1 -15 945.749 774.311   5
  -6  -1 -14 6435.57 1098.49   5
  -6  -1 -13 6917.33 1122.18   5
  -6  -1 -12 7608.47 1072.63   5
  -6  -1 -11 2907.78 820.699   5
  -6  -1 -10-312.910 667.991   5
  -6  -1  -9 5118.19 912.986   5
  -6  -1  -8 2118.14 693.129   5
  -6  -1  -7 15956.6 1322.14   5
  -6  -1   5 8523.33 949.845   4
  -6  -1   6 20035.1 1317.14   4
  -6  -1   6 16624.8 928.956   1
  -6  -1   7 476.750 555.370   4
  -6  -1   8 13807.9 1142.89   4
  -6  -1   9-141.616 613.038   4
  -6  -1  10 9693.67 1103.93   4
  -6  -1  11 13813.2 1255.02   4
  -6  -1  12 7923.64 1057.72   4
  -6  -1  13 8179.29 1106.05   4
  -6  -1  14 2740.81 857.366   4
  -6  -1  15 4822.90 1018.73   4
  -6  -1  16-217.377 793.134   4
  -6  -1  17 6229.76 1182.84   4
  -6  -1  18 388.399 855.167   4
  -6   0 -15 5354.22 1026.74   5
  -6   0 -14 4565.81 1039.03   2
  -6   0 -14 2163.57 816.131   5
  -6   0 -13 11840.8 1257.92   2
  -6   0 -13 10748.0 1270.59   5
  -6   0 -12 3152.34 835.644   5
  -6   0 -12 4840.20 963.804   2
  -6   0 -11 9041.77 1195.15   5
  -6   0   4 12790.8 1001.47   4
  -6   0   5 20484.4 1233.97   4
  -6   0   6-353.799 526.340   4
  -6   0   6-199.103 308.559   1
  -6   0   7 16230.9 1116.63   4
  -6   0   7 16342.8 725.363   1
  -6   0   8 1049.86 530.282   4
  -6   0   8-41.8099 280.047   1
  -6   0   9 13854.9 1141.89   4
  -6   0  10 2854.61 681.023   4
  -6   0  11 7357.34 961.311   4
  -6   0  12 6647.74 967.776   4
  -6   0  13 7334.15 1046.53   4
  -6   0  14 1687.38 778.230   4
  -6   0  15 1519.10 823.876   4
  -6   0  16 5469.96 1080.89   4
  -6   0  17 948.279 824.831   4
  -6   1 -16 4739.81 1192.70   1
  -6   1 -15-432.453 721.317   5
  -6   1 -15-512.177 830.282   1
  -6   1 -14 11554.4 1322.99   5
  -6   1 -13 1783.55 778.849   2
  -6   1 -12 14456.7 1188.70   2
  -6   1 -11 3468.21 784.229   2
  -6   1 -10 6894.50 833.277   2
  -6   1   3 21364.1 1111.18   4
  -6   1   4 22289.2 1135.23   4
  -6   1   5 2540.16 538.298   4
  -6   1   5 1133.34 145.222   1
  -6   1   6 21438.0 1166.23   4
  -6   1   7 558.358 475.713   4
  -6   1   8 16205.5 1108.88   4
  -6   1   9 1908.38 591.913   4
  -6   1  10 10595.6 1039.91   4
  -6   1  11 52.1506 551.383   4
  -6   1  12 7366.68 1017.66   4
  -6   1  13 1496.08 737.768   4
  -6   1  14 7302.98 1095.46   4
  -6   1  15 1508.66 783.053   4
  -6   2 -16 234.137 837.642   1
  -6   2 -15 9872.05 1409.62   1
  -6   2 -14-4.80209 762.124   1
  -6   2 -13 17427.4 1610.37   1
  -6   2 -12 695.444 725.095   1
  -6   2 -11 20449.7 1219.78   2
  -6   2 -10 4634.68 694.281   2
  -6   2  -9 15685.3 925.151   2
  -6   2   1 11811.5 769.345   4
  -6   2   2 22690.8 983.682   4
  -6   2   2 16439.9 484.825   1
  -6   2   3 5948.87 591.347   4
  -6   2   4 15808.1 882.789   4
  -6   2   5 17769.9 960.410   4
  -6   2   6 5263.25 630.053   4
  -6   2   7 10056.0 848.463   4
  -6   2   8 508.453 464.866   4
  -6   2   9 8007.56 904.535   4
  -6   2  10 716.411 587.037   4
  -6   2  11 6329.47 938.641   4
  -6   2  12-318.085 589.841   4
  -6   3 -16 7497.77 1344.39   1
  -6   3 -15 1013.03 841.706   1
  -6   3 -14 6979.66 1200.17   1
  -6   3 -13 844.325 714.463   1
  -6   3 -12 13215.7 1367.72   1
  -6   3 -11 178.878 595.613   1
  -6   3 -10 17088.3 1421.79   1
  -6   3  -9 3002.20 499.954   2
  -6   3  -9 3070.61 731.891   1
  -6   3  -8 3076.87 685.242   1
  -6   3  -7 5448.18 769.153   1
  -6   3  -6 3420.81 453.851   3
  -6   3  -6 2557.82 571.245   1
  -6   3  -5 8220.91 635.572   3
  -6   3  -5 7562.80 752.518   1
  -6   3  -4 1176.70 440.011   1
  -6   3  -3 20873.7 1026.51   1
  -6   3  -2 3158.42 509.384   1
  -6   3  -1 30923.9 1026.67   1
  -6   3   0 1728.09 417.624   4
  -6   3   0 7142.19 497.991   1
  -6   3   1 19587.7 609.465   1
  -6   3   1 24208.6 819.676   4
  -6   3   2 1531.87 340.194   4
  -6   3   3 7137.23 537.382   4
  -6   3   4 3152.94 456.456   4
  -6   3   5 8064.01 661.751   4
  -6   3   6 11653.6 828.112   4
  -6   3   7 6520.68 729.692   4
  -6   3   8 15403.1 1071.31   4
  -6   3   9 4409.08 767.535   4
  -6   4 -16 2755.55 1027.65   1
  -6   4 -15 3959.68 1055.70   1
  -6   4 -14 1523.79 822.303   1
  -6   4 -13 6362.99 1106.13   1
  -6   4 -12-100.679 641.202   1
  -6   4 -11 10057.2 1228.70   1
  -6   4 -10-202.265 583.386   1
  -6   4  -9 15042.7 1305.51   1
  -6   4  -8 917.917 558.134   1
  -6   4  -7 5231.41 783.417   1
  -6   4  -6 9080.06 882.578   1
  -6   4  -5 4977.04 680.185   1
  -6   4  -4 6953.30 344.534   4
  -6   4  -4 14156.2 928.384   1
  -6   4  -3 1443.78 472.305   1
  -6   4  -2 38661.5 1324.78   1
  -6   4  -1 9551.12 668.209   1
  -6   5 -16 1830.44 967.316   1
  -6   5 -15 91.8156 864.911   1
  -6   5 -14 2274.10 888.966   1
  -6   5 -13 1407.05 789.580   1
  -6   5 -12 7237.91 1104.64   1
  -6   5 -11 113.039 661.297   1
  -6   5 -10 15528.4 1366.25   1
  -6   5  -9-511.059 665.810   1
  -6   5  -8 16282.3 1285.68   1
  -6   5  -7 2051.59 640.749   1
  -6   5  -6 8918.34 964.360   1
  -6   5  -5 5932.84 771.817   1
  -6   5  -4 7167.67 799.666   1
  -6   5  -3 18557.7 1072.44   1
  -6   6 -16 764.968 1018.06   1
  -6   6 -15 1513.72 1004.23   1
  -6   6 -14 1193.31 940.568   1
  -6   6 -13 6676.64 1246.83   1
  -6   6 -12 4807.88 1108.76   1
  -6   6 -11 16312.7 1560.50   1
  -6   6 -10-726.277 803.990   1
  -6   6  -9 12885.5 1325.32   1
  -6   6  -8 149.406 632.896   1
  -6   6  -7 16137.0 1325.25   1
  -6   6  -6 2015.64 705.028   1
  -6   6  -5 14123.3 1102.50   1
  -6   7 -15 5017.69 1308.14   1
  -6   7 -14 3290.32 1183.34   1
  -6   7 -13 5540.20 1242.25   1
  -6   7 -12 7003.19 1293.03   1
  -6   7 -11 3958.18 1064.26   1
  -6   7 -10 4565.98 1045.38   1
  -6   7  -9 1314.62 772.382   1
  -6   7  -8 10023.1 1172.35   1
  -6   7  -7 2260.22 782.636   1
  -6   8 -15 4190.57 1272.74   1
  -6   8 -14 5291.55 1250.67   1
  -6   8 -13 3895.61 1145.37   1
  -6   8 -12 4944.53 1159.37   1
  -6   8 -11 8220.09 1304.01   1
  -6   8 -10 4061.09 1065.59   1
  -5 -11   3 3903.30 1131.07   5
  -5 -11   4 760.105 938.040   5
  -5 -11   5 5799.02 1243.60   5
  -5 -11   6 1854.63 998.112   5
  -5 -11   7 4038.53 1117.74   5
  -5 -11   8 4701.63 1150.63   5
  -5 -11   9 936.156 886.805   5
  -5 -11  10 4588.19 1130.68   5
  -5 -11  10 12519.4 1777.70   4
  -5 -11  11 3908.68 1370.00   4
  -5 -10  -2 2821.25 1097.75   5
  -5 -10  -1 2011.62 1026.46   5
  -5 -10   0 4141.88 1172.71   5
  -5 -10   1-95.8834 829.923   5
  -5 -10   2 7423.66 1268.69   5
  -5 -10   3 1042.87 926.231   5
  -5 -10   4 13456.1 1578.77   5
  -5 -10   5 4137.08 1117.05   5
  -5 -10   6 13790.4 1521.85   5
  -5 -10   7 5882.74 1163.51   5
  -5 -10   8 5644.31 1113.69   5
  -5 -10   9 4423.34 1017.76   5
  -5 -10  10 2311.63 873.292   5
  -5 -10  10 7317.33 1460.62   4
  -5 -10  11 6451.53 1435.06   4
  -5 -10  12 2021.69 1197.44   4
  -5 -10  13 4681.27 1306.28   4
  -5  -9  -5 1451.98 959.917   5
  -5  -9  -4 3821.42 1094.80   5
  -5  -9  -3 607.984 857.822   5
  -5  -9  -2 6247.34 1238.10   5
  -5  -9  -1 2617.95 958.165   5
  -5  -9   0 5237.88 1109.82   5
  -5  -9   1 8012.48 1245.48   5
  -5  -9   2 398.490 734.586   5
  -5  -9   3 10389.6 1316.07   5
  -5  -9   4 1088.06 826.649   5
  -5  -9   5 13163.2 1410.53   5
  -5  -9   6 1993.61 848.746   5
  -5  -9   7 8053.11 1164.10   5
  -5  -9   8 5123.95 991.279   5
  -5  -9   9 4201.85 969.354   5
  -5  -9  10 3553.65 906.001   5
  -5  -9  10 7138.88 1373.06   4
  -5  -9  11 3664.04 1167.97   4
  -5  -9  11 1889.82 808.874   5
  -5  -9  12 4785.90 1257.33   4
  -5  -9  13 2403.74 1056.82   4
  -5  -9  14 4324.45 1191.33   4
  -5  -9  15-1104.94 1076.07   4
  -5  -8  -8-780.567 933.152   5
  -5  -8  -7 6028.36 1217.92   5
  -5  -8  -6 312.516 822.321   5
  -5  -8  -5 5809.58 1167.94   5
  -5  -8  -4 186.455 737.540   5
  -5  -8  -3 7108.56 1203.22   5
  -5  -8  -2 2760.70 910.958   5
  -5  -8  -1 10887.9 1325.20   5
  -5  -8   0 6503.66 1098.72   5
  -5  -8   1 3241.37 880.668   5
  -5  -8   2 10693.0 1254.75   5
  -5  -8   3 1837.50 807.513   5
  -5  -8   4 17512.0 1509.52   5
  -5  -8   5 5175.93 993.360   5
  -5  -8   6 21785.6 1603.02   5
  -5  -8   7 3654.41 880.818   5
  -5  -8   8 6883.75 1019.92   5
  -5  -8   9 2553.26 777.000   5
  -5  -8  10 5168.07 907.020   5
  -5  -8  10 8295.15 1374.55   4
  -5  -8  11 3021.08 750.284   5
  -5  -8  11 5164.74 1205.02   4
  -5  -8  12 7441.64 1341.24   4
  -5  -8  13 5738.76 1206.18   4
  -5  -8  14 1483.74 936.913   4
  -5  -8  15 3945.68 1108.64   4
  -5  -8  16 440.029 932.247   4
  -5  -7 -11 1552.41 937.187   5
  -5  -7 -10 3047.73 1001.97   5
  -5  -7  -9 378.631 831.128   5
  -5  -7  -8 3256.77 945.966   5
  -5  -7  -7 483.773 778.284   5
  -5  -7  -6 7882.38 1208.69   5
  -5  -7  -5 103.731 705.062   5
  -5  -7  -4 10143.8 1270.82   5
  -5  -7  -3 1108.40 782.493   5
  -5  -7  -2 5649.98 1032.27   5
  -5  -7  -1 2484.19 786.495   5
  -5  -7   0 5689.32 963.938   5
  -5  -7   1 8868.56 1106.70   5
  -5  -7   2 4403.38 870.605   5
  -5  -7   3 14229.4 1278.69   5
  -5  -7   4 3621.42 842.919   5
  -5  -7   5 36261.1 1857.77   5
  -5  -7   6 4164.66 860.794   5
  -5  -7   7 20222.1 1418.36   5
  -5  -7   8 1600.69 684.563   5
  -5  -7   9 19132.9 1352.44   5
  -5  -7   9 20948.1 1784.78   4
  -5  -7  10 5138.71 1157.40   4
  -5  -7  10 2691.47 717.222   5
  -5  -7  11 20578.8 1832.18   4
  -5  -7  11 18853.5 1289.04   5
  -5  -7  12 5635.29 1163.94   4
  -5  -7  13 6066.20 1197.71   4
  -5  -7  14 4202.80 1096.68   4
  -5  -7  15 1000.53 852.598   4
  -5  -7  16 2625.94 990.709   4
  -5  -7  17-534.725 870.070   4
  -5  -6 -13 391.428 858.102   5
  -5  -6 -12 90.2962 811.716   5
  -5  -6 -11 4951.10 1134.58   5
  -5  -6 -10 672.709 804.149   5
  -5  -6  -9 4588.46 1070.23   5
  -5  -6  -8 1086.98 812.025   5
  -5  -6  -7 17320.4 1594.11   5
  -5  -6  -6 954.425 753.753   5
  -5  -6  -5 38169.4 2134.10   5
  -5  -6  -4 3221.14 868.446   5
  -5  -6  -3 40095.7 2107.12   5
  -5  -6  -2 2259.43 796.364   5
  -5  -6  -1 26395.1 1678.18   5
  -5  -6   0 1903.15 749.124   5
  -5  -6   1 39799.4 1946.60   5
  -5  -6   2 3220.84 833.032   5
  -5  -6   3 19282.5 1375.94   5
  -5  -6   4 9307.94 1031.38   5
  -5  -6   5 5778.03 851.724   5
  -5  -6   6 12317.5 1058.59   5
  -5  -6   7 1030.90 537.685   5
  -5  -6   8 9131.20 943.772   5
  -5  -6   9 3209.50 960.331   4
  -5  -6   9 2314.72 653.415   5
  -5  -6  10 16363.8 1577.97   4
  -5  -6  10 14699.0 1068.25   5
  -5  -6  11 9029.17 884.390   5
  -5  -6  11 8737.16 1265.87   4
  -5  -6  12 4047.37 997.684   4
  -5  -6  13 7159.28 1152.98   4
  -5  -6  14-903.273 913.096   4
  -5  -6  15 5075.54 1087.57   4
  -5  -6  16 424.217 777.227   4
  -5  -6  17 2149.43 962.132   4
  -5  -6  18 3955.08 1142.79   4
  -5  -5 -14-193.078 879.870   5
  -5  -5 -13 3037.35 981.306   5
  -5  -5 -12 4302.83 1043.73   5
  -5  -5 -11 7724.28 1199.21   5
  -5  -5 -10 6610.93 1122.88   5
  -5  -5  -9 16527.3 1519.90   5
  -5  -5  -8 8330.15 1163.79   5
  -5  -5  -7 17890.5 1501.51   5
  -5  -5  -6 18199.3 1488.81   5
  -5  -5  -5 3201.25 796.584   5
  -5  -5  -4 20225.6 1469.29   5
  -5  -5  -3 625.061 612.722   5
  -5  -5  -2 1717.94 643.556   5
  -5  -5  -1-299.865 562.096   5
  -5  -5   0 4703.83 757.262   5
  -5  -5   1 0.10821 488.185   5
  -5  -5   2 8599.01 900.740   5
  -5  -5   3 10938.1 982.507   5
  -5  -5   4 5431.08 769.419   5
  -5  -5   5 41725.4 1710.39   5
  -5  -5   6 1069.32 545.785   5
  -5  -5   7 39136.5 1625.51   5
  -5  -5   8 2112.19 868.410   4
  -5  -5   8 830.569 468.932   5
  -5  -5   9 41139.8 2183.56   4
  -5  -5   9 40691.6 1538.13   5
  -5  -5  10 329.161 434.658   5
  -5  -5  10 407.352 764.145   4
  -5  -5  11 20204.4 1033.51   5
  -5  -5  11 20006.8 1633.21   4
  -5  -5  12 21.4590 701.025   4
  -5  -5  13 5694.47 1055.26   4
  -5  -5  14 1421.16 851.492   4
  -5  -5  15 5008.06 1010.88   4
  -5  -5  16 825.216 778.496   4
  -5  -5  17 5093.27 1122.01   4
  -5  -5  18 2111.05 988.522   4
  -5  -4 -14 3656.62 1017.83   5
  -5  -4 -13-454.656 779.807   5
  -5  -4 -12 5039.83 1012.33   5
  -5  -4 -11 833.267 731.229   5
  -5  -4 -10 7723.59 1072.46   5
  -5  -4  -9 5201.56 911.723   5
  -5  -4  -8 9451.15 1091.83   5
  -5  -4  -7 7096.59 941.501   5
  -5  -4  -6 1887.93 644.500   5
  -5  -4  -5 17204.5 1270.52   5
  -5  -4  -4-65.7053 520.464   5
  -5  -4  -3 12152.1 1091.42   5
  -5  -4  -2 302.155 478.986   5
  -5  -4  -1 17788.1 1207.70   5
  -5  -4   0 1508.68 558.939   5
  -5  -4   1 38952.8 1627.44   5
  -5  -4   2 4628.98 697.968   5
  -5  -4   3 26169.0 1295.93   5
  -5  -4   4 28373.2 1314.87   5
  -5  -4   5 7292.28 731.280   5
  -5  -4   6 17507.1 1030.68   5
  -5  -4   7 5006.43 632.495   5
  -5  -4   8 18814.0 1021.35   5
  -5  -4   8 20672.0 1493.93   4
  -5  -4   9 2203.36 813.131   4
  -5  -4   9 1997.83 484.475   5
  -5  -4  10 19380.7 1553.29   4
  -5  -4  10 19637.8 953.612   5
  -5  -4  11 2377.62 794.529   4
  -5  -4  11 2447.85 460.202   5
  -5  -4  12 11649.5 1285.96   4
  -5  -4  13-89.2417 684.076   4
  -5  -4  14 7137.38 1114.58   4
  -5  -4  15 2692.07 857.642   4
  -5  -4  16 5411.87 1094.69   4
  -5  -4  17 2165.96 927.726   4
  -5  -4  18 3593.43 1074.75   4
  -5  -3 -15 5530.75 1040.45   5
  -5  -3 -14 161.424 691.172   5
  -5  -3 -13 7303.61 1053.56   5
  -5  -3 -12 863.485 636.590   5
  -5  -3 -11 7282.07 996.374   5
  -5  -3 -10 1210.01 624.604   5
  -5  -3  -9 8943.71 1030.48   5
  -5  -3  -8 2816.12 751.024   5
  -5  -3  -7 6403.46 905.356   5
  -5  -3  -6 4691.21 805.426   5
  -5  -3  -5 8740.86 962.894   5
  -5  -3  -4 14239.7 1142.74   5
  -5  -3  -3 2228.84 611.044   5
  -5  -3  -2 22812.4 1366.36   5
  -5  -3  -1 353.538 497.049   5
  -5  -3   0 44229.3 1748.43   5
  -5  -3   1 983.516 522.688   5
  -5  -3   2 36486.6 1523.10   5
  -5  -3   3 16078.0 1025.69   5
  -5  -3   4 25884.5 1236.41   5
  -5  -3   5 15020.8 936.117   5
  -5  -3   6 18795.8 1000.51   5
  -5  -3   7 16828.7 913.334   5
  -5  -3   7 18776.5 1336.41   4
  -5  -3   8 8153.31 1023.82   4
  -5  -3   8 6172.72 565.965   5
  -5  -3   9 13603.6 756.254   5
  -5  -3   9 15087.6 1282.94   4
  -5  -3  10 9851.88 1109.78   4
  -5  -3  10 10553.4 645.662   5
  -5  -3  11 22076.4 1571.89   4
  -5  -3  11 22566.2 771.939   5
  -5  -3  12 1399.50 742.780   4
  -5  -3  13 17815.3 1479.02   4
  -5  -3  14 1611.44 826.061   4
  -5  -3  15 3901.55 935.028   4
  -5  -3  16 1030.28 797.733   4
  -5  -3  17 3630.88 982.871   4
  -5  -3  18 1272.42 872.925   4
  -5  -3  19 1950.10 1000.24   4
  -5  -2 -17 5572.58 1286.53   2
  -5  -2 -16 6666.56 1253.37   2
  -5  -2 -15 2626.68 1004.97   2
  -5  -2 -15 840.989 711.983   5
  -5  -2 -14 6880.77 1205.76   2
  -5  -2 -14 5791.04 980.715   5
  -5  -2 -13 365.416 620.845   5
  -5  -2 -13 1969.11 901.151   2
  -5  -2 -12 5449.59 929.063   5
  -5  -2 -12 7807.47 1178.68   2
  -5  -2 -11-239.812 625.185   5
  -5  -2 -10 8366.79 1031.52   5
  -5  -2  -9 1340.05 659.549   5
  -5  -2  -8 9267.29 1041.82   5
  -5  -2  -7 2602.46 684.984   5
  -5  -2  -6 32415.2 1658.00   5
  -5  -2  -5 19397.7 1299.80   5
  -5  -2  -4 32106.8 1616.46   5
  -5  -2  -3 42580.5 1775.81   5
  -5  -2  -2 10196.8 945.406   5
  -5  -2  -1 35325.7 1543.70   5
  -5  -2   0 3199.76 658.576   5
  -5  -2   1 40810.5 1557.09   5
  -5  -2   2 12589.7 944.421   5
  -5  -2   3 48438.8 1624.90   5
  -5  -2   4 4170.82 637.503   5
  -5  -2   5 20772.1 1047.50   5
  -5  -2   6 4951.02 815.688   4
  -5  -2   6 2938.46 500.726   5
  -5  -2   7 10605.9 720.867   5
  -5  -2   7 10598.2 1038.01   4
  -5  -2   8 4092.12 755.671   4
  -5  -2   8 4743.71 513.037   5
  -5  -2   9 3849.36 788.638   4
  -5  -2   9 4094.81 448.184   5
  -5  -2  10 9514.39 1068.14   4
  -5  -2  10 10693.5 546.740   5
  -5  -2  11 1736.14 234.063   5
  -5  -2  11 3012.95 798.021   4
  -5  -2  12 26571.7 1660.08   4
  -5  -2  13 1614.98 804.983   4
  -5  -2  14 11539.2 1297.51   4
  -5  -2  15 600.653 730.470   4
  -5  -2  16 4392.03 982.578   4
  -5  -2  17 2448.15 910.761   4
  -5  -2  18 4190.88 1077.07   4
  -5  -2  19 773.068 879.620   4
  -5  -1 -18 3115.97 1133.15   2
  -5  -1 -17 3446.20 1095.83   2
  -5  -1 -16 2201.29 984.877   2
  -5  -1 -15 4622.11 1077.89   2
  -5  -1 -15 4012.06 863.022   5
  -5  -1 -14 1142.04 681.529   5
  -5  -1 -14 2597.71 963.628   2
  -5  -1 -13 9791.52 1227.19   2
  -5  -1 -13 7533.61 1030.20   5
  -5  -1 -12 580.274 632.699   5
  -5  -1 -12 1808.94 807.937   2
  -5  -1 -11 10104.9 1148.17   2
  -5  -1 -11 9859.25 1081.17   5
  -5  -1 -10 1209.00 748.370   2
  -5  -1 -10 220.038 550.931   5
  -5  -1  -9 13239.5 1163.98   2
  -5  -1  -9 13008.1 1153.94   5
  -5  -1  -8 501.657 588.717   5
  -5  -1  -7 31756.4 1622.46   5
  -5  -1   5 7838.08 845.507   4
  -5  -1   6 17506.2 887.074   1
  -5  -1   6 19286.9 1236.98   4
  -5  -1   7 26559.8 1122.38   1
  -5  -1   7 27212.8 1432.19   4
  -5  -1   8 14673.1 1109.35   4
  -5  -1   9 23166.7 1395.41   4
  -5  -1  10 11391.7 1082.21   4
  -5  -1  10 10932.3 573.335   5
  -5  -1  11 22859.3 1461.75   4
  -5  -1  12 6538.60 954.588   4
  -5  -1  13 22312.0 1592.21   4
  -5  -1  14 1409.81 744.523   4
  -5  -1  15 3158.81 854.813   4
  -5  -1  16-659.966 791.499   4
  -5  -1  17 3691.67 1004.70   4
  -5  -1  18 96.9458 765.977   4
  -5   0 -18 778.032 1026.98   2
  -5   0 -17 2660.13 1044.04   1
  -5   0 -17 4147.67 1105.12   2
  -5   0 -16 1574.10 938.801   2
  -5   0 -15 4132.39 896.587   5
  -5   0 -15 4941.73 1060.93   2
  -5   0 -14 6275.32 969.089   5
  -5   0 -14 6943.41 1095.15   2
  -5   0 -13 8748.05 1069.89   5
  -5   0 -13 7467.97 1081.80   2
  -5   0 -12 8951.40 1086.12   5
  -5   0 -12 7462.25 1047.74   2
  -5   0 -11 1741.28 664.654   5
  -5   0 -11 1909.85 742.114   2
  -5   0 -10 7884.88 938.930   2
  -5   0  -9 1388.77 628.420   2
  -5   0  -8 23170.1 1217.72   2
  -5   0   4 9636.61 841.882   4
  -5   0   5 50269.5 1158.91   1
  -5   0   5 51724.2 1719.20   4
  -5   0   6 2536.35 326.514   1
  -5   0   6 2251.73 500.804   4
  -5   0   7 17661.2 737.399   1
  -5   0   7 17856.4 1128.67   4
  -5   0   8 6512.61 773.631   4
  -5   0   9 5658.01 790.749   4
  -5   0  10 4139.84 750.714   4
  -5   0  11 4556.82 788.639   4
  -5   0  12 8078.73 999.211   4
  -5   0  13 4228.67 867.861   4
  -5   0  14 3875.73 881.072   4
  -5   0  15-50.6624 659.996   4
  -5   0  16 3687.83 929.039   4
  -5   1 -17-82.8998 854.106   1
  -5   1 -17-445.672 854.700   2
  -5   1 -16 3397.61 1011.83   1
  -5   1 -16 4808.38 1042.03   2
  -5   1 -15 514.580 737.596   2
  -5   1 -15 791.042 688.198   5
  -5   1 -15 398.802 746.707   1
  -5   1 -14 8237.75 1056.71   5
  -5   1 -14 7786.58 1071.56   2
  -5   1 -13 6506.18 970.038   2
  -5   1 -12 13717.5 1192.43   2
  -5   1 -11 11569.6 1032.15   2
  -5   1 -10-251.281 537.038   2
  -5   1  -9 25337.9 1236.34   2
  -5   1  -8 959.511 482.943   2
  -5   1  -7 21173.6 973.759   2
  -5   1   3 3289.88 568.323   4
  -5   1   4 25670.7 549.029   1
  -5   1   4 49895.3 1486.67   4
  -5   1   5-217.520 418.548   4
  -5   1   6 28434.7 1223.33   4
  -5   1   7 6712.88 722.118   4
  -5   1   8 13316.4 997.795   4
  -5   1   9 815.249 348.758   5
  -5   1   9 903.948 513.153   4
  -5   1  10 4069.27 715.219   4
  -5   1  11 2954.18 751.162   4
  -5   1  12 19233.7 1416.18   4
  -5   1  13 5154.29 938.603   4
  -5   1  14 5645.59 970.328   4
  -5   2 -17 6090.43 1229.10   1
  -5   2 -16-1088.52 844.326   2
  -5   2 -16-327.243 800.008   1
  -5   2 -15 4164.12 842.189   2
  -5   2 -15 4645.99 1075.09   1
  -5   2 -14-477.046 774.788   2
  -5   2 -14-88.1893 708.584   1
  -5   2 -13 14974.7 1188.59   2
  -5   2 -13 16800.2 1548.78   1
  -5   2 -12 8143.35 880.215   2
  -5   2 -12 8900.64 1151.01   1
  -5   2 -11 1.50865 592.377   2
  -5   2 -11 517.110 613.862   1
  -5   2 -10 16792.2 1040.07   2
  -5   2  -9-212.052 464.793   2
  -5   2  -8 10640.1 721.611   2
  -5   2  -7 62.0983 332.928   2
  -5   2  -6 17387.5 684.163   2
  -5   2  -5 244.352 328.872   3
  -5   2  -4 44095.4 1312.41   3
  -5   2  -3 1709.12 410.231   3
  -5   2   1 35753.5 760.748   1
  -5   2   1 41797.0 1145.65   4
  -5   2   2 16503.0 755.131   4
  -5   2   3 21383.9 880.516   4
  -5   2   4 5674.20 546.135   4
  -5   2   5 23418.5 1019.13   4
  -5   2   6 24.5975 349.698   4
  -5   2   7 17594.0 1039.37   4
  -5   2   8 110.375 442.866   4
  -5   2   9 8178.81 865.469   4
  -5   2  10 401.713 528.842   4
  -5   2  11 12261.1 1106.25   4
  -5   3 -17-651.312 925.402   1
  -5   3 -16 6068.36 1174.97   1
  -5   3 -15 70.3359 779.935   1
  -5   3 -14 8690.92 1227.73   1
  -5   3 -13 2399.99 812.271   1
  -5   3 -12 6225.80 986.198   1
  -5   3 -11 11355.4 1176.93   1
  -5   3 -10 3440.94 768.049   1
  -5   3  -9 9896.14 1006.05   1
  -5   3  -8 3065.28 652.024   1
  -5   3  -8 2687.93 295.902   3
  -5   3  -7 5958.01 424.923   3
  -5   3  -7 6439.36 782.925   1
  -5   3  -6 4970.48 417.248   3
  -5   3  -6 4763.98 646.801   1
  -5   3  -6 4156.99 314.169   2
  -5   3  -6 4304.49 466.094   4
  -5   3  -5 23179.4 1175.44   1
  -5   3  -5 23206.6 848.865   3
  -5   3  -4 3089.41 449.909   3
  -5   3  -4 1814.19 497.110   1
  -5   3  -3 42392.3 1260.17   3
  -5   3  -3 43584.0 1367.83   1
  -5   3  -2 8341.13 621.730   1
  -5   3  -1 12323.9 462.235   4
  -5   3  -1 22420.6 817.844   1
  -5   3   0 10639.7 565.866   1
  -5   3   0 7817.79 403.072   4
  -5   3   1 28783.4 732.300   4
  -5   3   2 10862.6 538.561   4
  -5   3   3 13401.6 660.088   4
  -5   3   4 13191.7 714.741   4
  -5   3   5 6416.71 594.460   4
  -5   3   6 13931.6 891.322   4
  -5   3   7 276.589 426.231   4
  -5   4 -17 5676.93 1216.08   1
  -5   4 -16 477.179 833.379   1
  -5   4 -15 6520.40 1202.14   1
  -5   4 -14 407.377 690.924   1
  -5   4 -13 5497.44 1013.35   1
  -5   4 -12 263.416 627.297   1
  -5   4 -11 12227.5 1260.16   1
  -5   4 -10 6332.79 939.988   1
  -5   4  -9 11281.2 1105.18   1
  -5   4  -8 9538.85 987.590   1
  -5   4  -7 6825.50 533.894   4
  -5   4  -7 8411.99 865.665   1
  -5   4  -6 10756.9 908.747   1
  -5   4  -6 9056.79 524.511   4
  -5   4  -5 2116.65 491.388   1
  -5   4  -5 1667.57 241.265   4
  -5   4  -4 26586.8 1191.69   1
  -5   4  -4 12441.5 372.032   4
  -5   4  -3 5214.75 620.058   1
  -5   4  -2 23583.5 1022.13   1
  -5   4  -1 14702.2 755.468   1
  -5   5 -17-842.221 1102.31   1
  -5   5 -16 1174.17 914.503   1
  -5   5 -15-744.198 903.618   1
  -5   5 -14 1275.96 784.013   1
  -5   5 -13-782.344 806.968   1
  -5   5 -12 8155.34 1123.63   1
  -5   5 -11-788.636 755.483   1
  -5   5 -10 16744.3 1395.57   1
  -5   5  -9 7439.20 977.865   1
  -5   5  -8 11229.5 1107.31   1
  -5   5  -7 18153.7 1295.36   1
  -5   5  -6 2264.84 622.508   1
  -5   5  -5 9978.04 393.322   2
  -5   5  -5 20286.7 1226.52   1
  -5   5  -4 2293.28 586.781   1
  -5   5  -3 34801.8 1352.96   1
  -5   6 -17 3561.38 1214.29   1
  -5   6 -16 2365.96 1064.54   1
  -5   6 -15 3207.98 1105.98   1
  -5   6 -14-1010.30 919.570   1
  -5   6 -13 4884.59 1103.49   1
  -5   6 -12-799.370 850.420   1
  -5   6 -11 23786.6 1785.83   1
  -5   6 -10 1203.67 740.490   1
  -5   6  -9 19445.7 1523.21   1
  -5   6  -8 6826.32 999.928   1
  -5   6  -7 7890.76 995.076   1
  -5   6  -6 10705.8 1015.24   1
  -5   6  -5 7936.04 898.739   1
  -5   7 -16 2945.96 1177.33   1
  -5   7 -15 1533.35 1063.64   1
  -5   7 -14 3771.49 1135.43   1
  -5   7 -13 538.005 886.155   1
  -5   7 -12 9081.25 1304.92   1
  -5   7 -11 2016.91 894.449   1
  -5   7 -10 18460.8 1548.69   1
  -5   7  -9 3470.99 886.040   1
  -5   7  -8 12593.8 1270.90   1
  -5   8 -15 4943.15 1238.18   1
  -5   8 -14 3160.83 1127.56   1
  -5   8 -13 9822.78 1444.43   1
  -5   8 -12 2529.12 1041.59   1
  -5   8 -11 9196.42 1326.30   1
  -4 -12   8 1853.70 1079.64   5
  -4 -12   9 14725.9 1861.01   4
  -4 -12   9 7360.94 1410.97   5
  -4 -12  10 5989.90 1530.81   4
  -4 -12  10 1386.37 1058.62   5
  -4 -11   1 3695.45 1164.58   5
  -4 -11   2 2617.00 1061.97   5
  -4 -11   3 3046.24 1044.61   5
  -4 -11   4 3290.57 1060.31   5
  -4 -11   5 4011.16 1112.66   5
  -4 -11   6 6564.85 1254.70   5
  -4 -11   7 3722.35 1076.64   5
  -4 -11   8 10516.1 1446.32   5
  -4 -11   9 1444.91 991.805   5
  -4 -11   9 7288.81 1491.34   4
  -4 -11  10 5841.16 1229.08   5
  -4 -11  10 9428.16 1558.73   4
  -4 -11  11 2190.14 1195.03   4
  -4 -11  12 3605.14 1249.48   4
  -4 -11  13-957.845 1084.44   4
  -4 -10  -3 554.713 911.370   5
  -4 -10  -2 9876.22 1451.42   5
  -4 -10  -1 189.185 896.965   5
  -4 -10   0 8278.65 1358.65   5
  -4 -10   1-22.4043 794.813   5
  -4 -10   2 10678.8 1387.28   5
  -4 -10   3 3261.55 1009.97   5
  -4 -10   4 9786.73 1361.77   5
  -4 -10   5 5163.41 1124.92   5
  -4 -10   6 9502.84 1313.01   5
  -4 -10   7 2800.80 931.169   5
  -4 -10   8 2399.50 892.149   5
  -4 -10   9 9172.98 1246.17   5
  -4 -10   9 13486.3 1650.59   4
  -4 -10  10 4098.87 1235.03   4
  -4 -10  10 1498.45 901.926   5
  -4 -10  11 4250.45 1052.29   5
  -4 -10  11 4730.99 1276.20   4
  -4 -10  12 999.113 1014.73   4
  -4 -10  13 6639.06 1298.68   4
  -4 -10  14-670.713 1024.78   4
  -4 -10  15 1713.61 1053.61   4
  -4  -9  -7 1372.12 939.787   5
  -4  -9  -6 4922.79 1167.49   5
  -4  -9  -5 1699.17 946.055   5
  -4  -9  -4 3477.89 1047.10   5
  -4  -9  -3 5939.78 1175.54   5
  -4  -9  -2 1872.05 887.091   5
  -4  -9  -1 3710.90 994.663   5
  -4  -9   0 328.820 776.284   5
  -4  -9   1 10014.3 1292.94   5
  -4  -9   2 2875.13 926.836   5
  -4  -9   3 15650.1 1501.96   5
  -4  -9   4 9595.20 1246.78   5
  -4  -9   5 18483.9 1576.75   5
  -4  -9   6 7967.76 1170.80   5
  -4  -9   7 9615.35 1212.49   5
  -4  -9   8 5977.35 1011.06   5
  -4  -9   9 6824.39 1330.66   4
  -4  -9   9 3323.69 887.376   5
  -4  -9  10 10636.5 1213.54   5
  -4  -9  10 12622.8 1575.40   4
  -4  -9  11 1487.53 864.340   5
  -4  -9  11 1739.72 1017.21   4
  -4  -9  12 6713.62 1269.68   4
  -4  -9  13-424.507 918.949   4
  -4  -9  14 5981.75 1238.54   4
  -4  -9  15 321.011 879.390   4
  -4  -9  16 2896.55 1050.26   4
  -4  -8 -10 152.458 869.250   5
  -4  -8  -9 3368.62 1073.72   5
  -4  -8  -8 1110.27 896.470   5
  -4  -8  -7 6799.01 1228.59   5
  -4  -8  -6 3020.28 939.832   5
  -4  -8  -5 6938.71 1194.54   5
  -4  -8  -4 4635.53 1038.02   5
  -4  -8  -3 5129.92 1025.99   5
  -4  -8  -2 6127.65 1112.49   5
  -4  -8  -1 7571.41 1113.36   5
  -4  -8   0 13208.1 1350.87   5
  -4  -8   1 1467.97 778.179   5
  -4  -8   2 25916.3 1752.11   5
  -4  -8   3 5036.17 1018.64   5
  -4  -8   4 17496.4 1456.98   5
  -4  -8   5 9042.31 1120.71   5
  -4  -8   6 16507.1 1389.06   5
  -4  -8   7 4893.39 899.998   5
  -4  -8   8 4201.33 843.699   5
  -4  -8   9 8907.05 1327.36   4
  -4  -8   9 5610.36 866.891   5
  -4  -8  10 3122.47 1036.73   4
  -4  -8  10 1595.84 675.870   5
  -4  -8  11 12055.2 1494.14   4
  -4  -8  11 12286.8 1152.53   5
  -4  -8  12 192.836 852.490   4
  -4  -8  13 9679.21 1351.58   4
  -4  -8  14-344.393 868.656   4
  -4  -8  15 7995.42 1310.69   4
  -4  -8  16 216.530 845.748   4
  -4  -8  17 3628.49 1071.18   4
  -4  -7 -13 985.842 917.852   5
  -4  -7 -12 2654.70 1018.81   5
  -4  -7 -11 1728.63 900.653   5
  -4  -7 -10 6339.62 1193.23   5
  -4  -7  -9 539.167 760.790   5
  -4  -7  -8 5226.65 1053.37   5
  -4  -7  -7 417.436 726.903   5
  -4  -7  -6 5969.82 1064.84   5
  -4  -7  -5 869.349 684.893   5
  -4  -7  -4 4299.70 912.748   5
  -4  -7  -3 1924.40 739.076   5
  -4  -7  -2 3353.62 843.819   5
  -4  -7  -1 12154.7 1225.19   5
  -4  -7   0 735.376 627.952   5
  -4  -7   1 23348.0 1559.88   5
  -4  -7   2 1141.26 695.654   5
  -4  -7   3 35647.1 1842.31   5
  -4  -7   4 8616.01 1057.03   5
  -4  -7   5 21471.8 1438.06   5
  -4  -7   6 9048.34 1033.43   5
  -4  -7   7 19108.7 1331.36   5
  -4  -7   8 3027.21 754.710   5
  -4  -7   9 7716.11 910.386   5
  -4  -7   9 8701.12 1243.18   4
  -4  -7  10 10184.0 971.908   5
  -4  -7  10 12819.9 1428.82   4
  -4  -7  11 5697.98 1176.47   4
  -4  -7  11 6496.60 868.200   5
  -4  -7  12 11529.8 1396.29   4
  -4  -7  13 276.064 754.444   4
  -4  -7  14 5792.67 1142.78   4
  -4  -7  15 771.244 806.246   4
  -4  -7  16 6194.55 1172.21   4
  -4  -7  17 271.601 825.081   4
  -4  -7  18 5168.41 1167.86   4
  -4  -6 -14 446.748 851.745   5
  -4  -6 -13 3408.18 1012.46   5
  -4  -6 -12 1165.69 839.725   5
  -4  -6 -11 6857.35 1155.14   5
  -4  -6 -10 1012.20 819.721   5
  -4  -6  -9 14632.4 1427.60   5
  -4  -6  -8 546.085 698.825   5
  -4  -6  -7 16345.1 1457.11   5
  -4  -6  -6 639.553 672.045   5
  -4  -6  -5 18628.3 1486.16   5
  -4  -6  -4 6051.97 1012.16   5
  -4  -6  -3 10292.8 1121.73   5
  -4  -6  -2 4817.42 860.551   5
  -4  -6  -1 6034.58 888.605   5
  -4  -6   0 14755.3 1232.14   5
  -4  -6   1 6788.19 900.987   5
  -4  -6   2 22538.0 1409.35   5
  -4  -6   3 7661.71 939.047   5
  -4  -6   4 30850.3 1545.69   5
  -4  -6   5 5363.07 817.251   5
  -4  -6   6 25856.4 1399.87   5
  -4  -6   7 3670.55 720.153   5
  -4  -6   8 17193.4 1135.10   5
  -4  -6   9 4250.01 956.892   4
  -4  -6   9 3164.02 628.428   5
  -4  -6  10 12410.1 1350.59   4
  -4  -6  10 11742.4 923.418   5
  -4  -6  11 5812.62 716.321   5
  -4  -6  11 5736.59 1063.96   4
  -4  -6  12 2230.27 856.300   4
  -4  -6  13 3530.79 929.503   4
  -4  -6  14 999.084 785.973   4
  -4  -6  15 4696.94 1039.86   4
  -4  -6  16-4.53581 732.125   4
  -4  -6  17 5624.45 1134.81   4
  -4  -6  18-177.800 863.821   4
  -4  -5 -14 1339.66 839.130   5
  -4  -5 -13 7540.45 1193.50   5
  -4  -5 -12 4541.51 981.451   5
  -4  -5 -11 8575.68 1193.16   5
  -4  -5 -10 8394.14 1156.58   5
  -4  -5  -9 5292.10 977.690   5
  -4  -5  -8 13201.2 1291.96   5
  -4  -5  -7 2010.43 729.087   5
  -4  -5  -6 10171.4 1109.66   5
  -4  -5  -5 3548.72 789.999   5
  -4  -5  -4 4409.64 777.613   5
  -4  -5  -3 2182.41 663.555   5
  -4  -5  -2 4847.05 791.751   5
  -4  -5  -1 7277.86 857.726   5
  -4  -5   0 16357.6 1165.85   5
  -4  -5   1 11992.8 1012.20   5
  -4  -5   2 16973.3 1160.30   5
  -4  -5   3 29564.3 1452.81   5
  -4  -5   4 5640.01 762.392   5
  -4  -5   5 33424.4 1473.76   5
  -4  -5   6 1624.28 542.008   5
  -4  -5   7 19202.7 1095.13   5
  -4  -5   8 6235.19 1003.86   4
  -4  -5   8 5087.64 671.957   5
  -4  -5   9 20043.4 1062.75   5
  -4  -5   9 21814.4 1582.27   4
  -4  -5  10 4169.81 935.630   4
  -4  -5  10 4309.59 581.882   5
  -4  -5  11 14788.6 846.581   5
  -4  -5  11 15170.9 1385.92   4
  -4  -5  12 7659.89 1150.96   4
  -4  -5  13 5543.54 1013.65   4
  -4  -5  14 6755.93 1093.01   4
  -4  -5  15 1511.06 835.867   4
  -4  -5  16 10848.2 1340.88   4
  -4  -5  17 3367.55 1012.63   4
  -4  -5  18 6949.74 1228.47   4
  -4  -5  19 657.844 873.691   4
  -4  -4 -14 5437.82 1048.68   5
  -4  -4 -13 1526.86 759.280   5
  -4  -4 -12 5779.50 988.532   5
  -4  -4 -11 4179.89 882.595   5
  -4  -4 -10 3496.81 796.804   5
  -4  -4  -9 10405.8 1109.56   5
  -4  -4  -8 2292.19 698.689   5
  -4  -4  -7 10748.3 1060.21   5
  -4  -4  -6 61.8259 499.914   5
  -4  -4  -5 10855.2 1000.87   5
  -4  -4  -4 2855.93 624.175   5
  -4  -4  -3 10038.6 924.469   5
  -4  -4  -2 3369.10 625.086   5
  -4  -4  -1 11778.2 944.467   5
  -4  -4   0 26493.1 1306.58   5
  -4  -4   1 64135.8 1929.30   5
  -4  -4   2 13465.5 966.773   5
  -4  -4   3 12739.0 932.499   5
  -4  -4   4 56072.0 1706.07   5
  -4  -4   5 7819.51 735.564   5
  -4  -4   6 28144.2 1199.15   5
  -4  -4   7 2870.50 747.395   4
  -4  -4   7 1982.44 456.059   5
  -4  -4   8 52089.0 2149.42   4
  -4  -4   8 50762.3 1460.05   5
  -4  -4   9 1211.60 396.990   5
  -4  -4   9 740.767 631.201   4
  -4  -4  10 24511.9 1576.47   4
  -4  -4  10 23928.5 942.675   5
  -4  -4  11 1432.05 723.610   4
  -4  -4  11 1853.10 342.933   5
  -4  -4  12 10997.2 1203.38   4
  -4  -4  13 4717.63 939.653   4
  -4  -4  14 3594.36 852.524   4
  -4  -4  15 5293.11 1001.61   4
  -4  -4  16 1999.72 846.802   4
  -4  -4  17 7263.61 1186.35   4
  -4  -4  18 1791.92 913.773   4
  -4  -4  19 4483.98 1115.77   4
  -4  -3 -16 3130.58 1186.47   2
  -4  -3 -15 8603.85 1348.14   2
  -4  -3 -14-56.3843 631.605   5
  -4  -3 -14 2679.99 1062.87   2
  -4  -3 -13 2845.35 772.926   5
  -4  -3 -13 5437.50 1124.85   2
  -4  -3 -12 3582.02 742.683   5
  -4  -3 -12 6803.32 1154.27   2
  -4  -3 -11 6562.29 904.976   5
  -4  -3 -11 9888.63 1278.93   2
  -4  -3 -10 5116.54 817.730   5
  -4  -3  -9 6693.08 884.588   5
  -4  -3  -8 8336.85 887.741   5
  -4  -3  -7 7176.92 881.897   5
  -4  -3  -6 13093.4 1039.89   5
  -4  -3  -5 648.033 516.238   5
  -4  -3  -4 28919.7 1445.01   5
  -4  -3  -3 565.224 472.689   5
  -4  -3  -2 18883.5 1129.12   5
  -4  -3  -1 5414.52 697.476   5
  -4  -3   0 54618.2 1763.76   5
  -4  -3   1 10626.7 853.457   5
  -4  -3   2 56740.7 1695.54   5
  -4  -3   3 25380.1 1149.47   5
  -4  -3   4 12447.5 826.756   5
  -4  -3   5 42794.4 1314.84   5
  -4  -3   6 12375.4 736.376   5
  -4  -3   7 51892.9 1364.37   5
  -4  -3   7 55353.3 2090.48   4
  -4  -3   8 292.665 573.338   4
  -4  -3   8 342.415 302.691   5
  -4  -3   9 34878.4 1728.55   4
  -4  -3   9 34567.0 990.006   5
  -4  -3  10 256.956 222.453   5
  -4  -3  10-294.637 555.014   4
  -4  -3  11 7330.40 300.348   5
  -4  -3  11 13617.9 1232.64   4
  -4  -3  12 1232.68 832.261   4
  -4  -3  13 10488.3 1156.51   4
  -4  -3  14 6809.60 1068.93   4
  -4  -3  15 2616.06 866.266   4
  -4  -3  16 3509.41 918.684   4
  -4  -3  17-457.183 808.590   4
  -4  -3  18 3985.01 1051.71   4
  -4  -3  19 454.896 841.666   4
  -4  -2 -17 2098.94 1079.79   2
  -4  -2 -16 6018.03 1219.64   2
  -4  -2 -15-146.366 632.803   5
  -4  -2 -15 1298.29 915.312   2
  -4  -2 -14 6124.63 908.780   5
  -4  -2 -14 7116.40 1175.55   2
  -4  -2 -13 1270.23 858.130   2
  -4  -2 -13 447.730 560.889   5
  -4  -2 -12 7896.47 1131.86   2
  -4  -2 -12 7018.82 894.150   5
  -4  -2 -11 4114.24 758.481   5
  -4  -2 -11 4383.46 904.082   2
  -4  -2 -10 21386.9 1382.77   5
  -4  -2 -10 21308.3 1491.22   2
  -4  -2  -9 9652.40 1078.60   2
  -4  -2  -9 8829.30 968.418   5
  -4  -2  -8 17803.4 1304.52   2
  -4  -2  -8 15467.8 1135.95   5
  -4  -2  -7 11544.0 1055.03   5
  -4  -2  -6 18338.0 1190.23   5
  -4  -2  -5 24471.4 1312.95   5
  -4  -2  -4 9698.66 873.116   5
  -4  -2  -3 54392.1 1827.87   5
  -4  -2  -2 561.939 483.120   5
  -4  -2  -1 36795.3 1440.88   5
  -4  -2   0 2738.45 556.390   5
  -4  -2   1 44756.3 1470.05   5
  -4  -2   2 13120.4 857.396   5
  -4  -2   3 38942.1 1309.81   5
  -4  -2   4 28200.5 1074.98   5
  -4  -2   5 10109.8 672.934   5
  -4  -2   6 28260.4 1419.66   4
  -4  -2   6 28089.2 999.861   5
  -4  -2   7 2653.26 636.712   4
  -4  -2   7 2795.44 376.967   5
  -4  -2   8 29535.2 1515.16   4
  -4  -2   8 29466.0 847.530   5
  -4  -2   9 418.450 532.291   4
  -4  -2   9 873.279 233.110   5
  -4  -2  10 15593.8 421.209   5
  -4  -2  10 22227.8 1384.91   4
  -4  -2  11 2223.10 715.263   4
  -4  -2  12 18439.9 1371.72   4
  -4  -2  13 7049.22 1055.77   4
  -4  -2  14 8931.36 1145.88   4
  -4  -2  15 3289.42 866.177   4
  -4  -2  16 345.653 683.439   4
  -4  -2  17 1678.67 852.074   4
  -4  -2  18 2925.96 986.688   4
  -4  -2  19 2731.58 987.745   4
  -4  -1 -18 2065.30 1095.14   2
  -4  -1 -17 5006.16 1147.87   2
  -4  -1 -16-389.255 855.939   2
  -4  -1 -15 10141.5 1038.57   5
  -4  -1 -15 10232.9 1290.08   2
  -4  -1 -14 39.8734 753.268   2
  -4  -1 -14 479.409 566.696   5
  -4  -1 -13 13449.3 1318.73   2
  -4  -1 -13 12259.7 1106.53   5
  -4  -1 -12 133.578 537.993   5
  -4  -1 -12 299.002 699.010   2
  -4  -1 -11 16990.6 1237.04   5
  -4  -1 -11 16923.7 1349.02   2
  -4  -1 -10 318.741 511.361   5
  -4  -1 -10 732.293 666.903   2
  -4  -1  -9 18552.0 1275.70   2
  -4  -1  -9 16345.5 1161.21   5
  -4  -1  -8 1499.56 634.713   2
  -4  -1  -8 679.518 496.937   5
  -4  -1  -7 14781.5 1082.11   5
  -4  -1  -7 15190.6 1055.52   2
  -4  -1  -6 2374.72 561.022   5
  -4  -1   5 27048.3 997.795   1
  -4  -1   5 29488.2 1337.30   4
  -4  -1   6 33926.8 1445.06   4
  -4  -1   6 35503.5 1186.99   1
  -4  -1   7 9402.97 658.247   1
  -4  -1   7 8307.83 809.751   4
  -4  -1   8 13073.7 1011.69   4
  -4  -1   9 16383.6 560.587   5
  -4  -1   9 15542.8 786.437   7
  -4  -1   9 16230.9 1117.99   4
  -4  -1  10 3637.26 759.933   4
  -4  -1  10 1736.36 147.673   5
  -4  -1  10 1557.98 154.092   5
  -4  -1  10 3760.90 502.770   7
  -4  -1  11 13599.8 716.515   7
  -4  -1  11 14708.5 1167.03   4
  -4  -1  12 2120.23 871.615   4
  -4  -1  13 9231.28 1104.89   4
  -4  -1  14 2150.65 852.820   4
  -4  -1  15 3175.29 844.455   4
  -4  -1  16 518.379 711.940   4
  -4  -1  17 2281.03 883.517   4
  -4   0 -19 2049.19 1054.30   2
  -4   0 -18 2240.19 1013.57   2
  -4   0 -17 3596.51 1104.18   1
  -4   0 -17 3155.35 1032.33   2
  -4   0 -16 2503.34 907.128   2
  -4   0 -15 392.688 756.631   2
  -4   0 -15 698.313 617.986   5
  -4   0 -14 11947.2 1117.41   5
  -4   0 -14 10969.3 1221.18   2
  -4   0 -13 218.840 705.942   2
  -4   0 -13 602.831 553.164   5
  -4   0 -12 12687.8 1100.89   5
  -4   0 -12 11916.7 1158.71   2
  -4   0 -11-593.968 724.249   2
  -4   0 -11-342.073 561.681   5
  -4   0 -10 13002.1 1053.68   5
  -4   0 -10 12771.8 1057.18   2
  -4   0  -9 3501.71 733.854   2
  -4   0  -8 21768.9 1190.54   2
  -4   0  -7 11357.7 858.584   2
  -4   0  -6 26306.3 1103.28   2
  -4   0  -5 53673.3 1595.59   6
  -4   0  -4 17678.3 938.123   6
  -4   0  -3 47571.4 1483.41   6
  -4   0   4 2176.28 496.462   4
  -4   0   5 33801.6 1147.33   7
  -4   0   5 34031.8 902.867   1
  -4   0   5 33689.4 1297.21   4
  -4   0   6 5728.79 526.248   7
  -4   0   6 4603.35 600.678   4
  -4   0   6 5506.86 425.489   1
  -4   0   7 8591.84 601.539   7
  -4   0   7 9690.01 806.058   4
  -4   0   7 7569.81 510.405   1
  -4   0   8 7195.67 759.768   4
  -4   0   8 7066.72 538.087   7
  -4   0   9 5592.77 480.668   7
  -4   0   9 5723.47 723.919   4
  -4   0   9 5279.58 397.181   5
  -4   0  10 7373.61 398.280   5
  -4   0  10 7804.55 529.219   7
  -4   0  10 9011.45 918.997   4
  -4   0  11 102.404 507.240   4
  -4   0  12 23485.6 1498.56   4
  -4   0  13 457.276 654.671   4
  -4   0  14 8831.48 1119.71   4
  -4   0  15 93.6423 634.592   4
  -4   1 -20 901.241 955.733   2
  -4   1 -19-676.932 984.262   2
  -4   1 -18 2349.53 962.373   2
  -4   1 -18 3192.60 1117.63   1
  -4   1 -17 618.974 848.094   2
  -4   1 -17 1921.06 901.776   1
  -4   1 -16 6237.40 1029.04   2
  -4   1 -16 7139.08 1224.45   1
  -4   1 -15 7208.42 1038.89   2
  -4   1 -15 9514.69 1016.39   5
  -4   1 -15 9508.55 1317.38   1
  -4   1 -14 861.151 706.002   1
  -4   1 -14 1237.61 619.204   5
  -4   1 -14-210.662 775.045   2
  -4   1 -13 16162.9 1242.78   5
  -4   1 -13 14223.6 1206.66   2
  -4   1 -12 3036.81 695.950   2
  -4   1 -11 6458.38 797.606   2
  -4   1 -10-1234.55 629.841   2
  -4   1  -9 16697.0 1042.26   2
  -4   1  -8 4016.73 539.155   6
  -4   1  -8 4467.54 631.231   2
  -4   1  -7 8646.24 702.023   2
  -4   1  -7 9254.06 687.844   6
  -4   1  -6 15958.8 794.082   2
  -4   1  -6 17809.0 858.500   6
  -4   1  -5 12832.8 648.372   2
  -4   1  -5 13158.7 739.219   6
  -4   1  -1 5740.66 599.028   3
  -4   1   0 70153.0 1667.76   3
  -4   1   1 27743.4 1203.76   3
  -4   1   2 62890.2 1393.51   4
  -4   1   3 356.098 358.184   4
  -4   1   4 48695.0 1359.09   4
  -4   1   5 887.222 370.095   4
  -4   1   6 10781.5 673.325   7
  -4   1   6 11318.9 785.882   4
  -4   1   7 3821.94 449.268   5
  -4   1   7 3738.53 443.527   7
  -4   1   7 3919.99 568.260   4
  -4   1   8 11963.5 672.825   7
  -4   1   8 13495.1 964.402   4
  -4   1   8 12986.9 705.199   5
  -4   1   9 1761.34 363.518   5
  -4   1   9 1526.64 553.982   4
  -4   1   9 1394.29 310.239   7
  -4   1  10 2100.06 364.304   5
  -4   1  10 1817.42 323.432   7
  -4   1  10 2128.72 585.860   4
  -4   1  11 24400.2 1473.04   4
  -4   1  12 1596.64 686.066   4
  -4   1  13 16806.9 1378.63   4
  -4   2 -19 780.187 933.585   2
  -4   2 -18-1326.28 954.351   2
  -4   2 -18 663.729 914.919   1
  -4   2 -17 7784.16 1321.60   1
  -4   2 -16 5059.57 1103.99   1
  -4   2 -15 2269.96 868.144   1
  -4   2 -14 15137.5 1482.41   1
  -4   2 -13 2985.72 785.778   1
  -4   2 -12 8673.09 1091.50   1
  -4   2 -11 51.2719 566.266   1
  -4   2 -10 10530.9 1058.00   1
  -4   2 -10 10058.2 632.033   6
  -4   2  -9 1584.24 387.156   6
  -4   2  -5 11265.6 587.710   3
  -4   2  -4 57974.7 1253.83   3
  -4   2  -4 47696.6 769.734   2
  -4   2  -3 2407.60 358.768   3
  -4   2  -2 25827.9 930.890   3
  -4   2  -1 34426.0 1100.84   3
  -4   2   0 34796.9 1192.68   3
  -4   2   0 30549.4 762.733   1
  -4   2   1 40637.1 674.817   1
  -4   2   1 40764.6 902.477   4
  -4   2   2 5315.85 469.755   4
  -4   2   3 54036.5 1220.54   4
  -4   2   4 4685.44 494.919   4
  -4   2   5 24642.9 1007.83   4
  -4   2   6 427.762 353.432   4
  -4   2   7 19311.2 1049.00   4
  -4   2   8 3790.53 613.439   4
  -4   2   9 10577.0 651.615   7
  -4   2   9 11617.6 940.192   4
  -4   3 -18 7252.19 1352.99   1
  -4   3 -17 774.685 853.894   1
  -4   3 -16 5920.94 1195.39   1
  -4   3 -15 4170.83 989.050   1
  -4   3 -14 4210.80 958.441   1
  -4   3 -13 5546.31 960.113   1
  -4   3 -12 4719.45 936.673   1
  -4   3 -11 6137.11 929.440   1
  -4   3 -10 1397.80 691.725   1
  -4   3  -9 18772.9 1287.34   1
  -4   3  -8 963.113 520.907   1
  -4   3  -7 17012.8 447.864   3
  -4   3  -7 35631.5 1551.79   1
  -4   3  -6 2218.29 507.654   1
  -4   3  -6 1069.68 183.837   3
  -4   3  -6 2131.80 356.636   4
  -4   3  -5 24779.8 697.004   3
  -4   3  -5 25411.6 812.477   4
  -4   3  -5 26858.1 1209.76   1
  -4   3  -4 1745.59 258.143   4
  -4   3  -4 2432.98 464.988   1
  -4   3  -4 1647.26 287.660   3
  -4   3  -3 81634.8 1757.37   1
  -4   3  -3 77580.4 1451.27   3
  -4   3  -2 12746.3 716.464   1
  -4   3  -2 11071.7 697.929   3
  -4   3  -1 56093.5 1258.42   1
  -4   3   0 19884.5 456.172   4
  -4   3   0 51193.0 1018.36   1
  -4   3   1 19161.0 552.635   4
  -4   3   2 22647.4 696.436   4
  -4   3   3 2387.46 341.609   4
  -4   4 -18-183.417 915.723   1
  -4   4 -17 7253.73 1295.83   1
  -4   4 -16 1665.05 916.740   1
  -4   4 -15 7693.59 1191.61   1
  -4   4 -14 3040.70 867.973   1
  -4   4 -13 6851.77 1039.29   1
  -4   4 -12 6207.39 978.491   1
  -4   4 -11 8375.79 1049.24   1
  -4   4 -10 15884.7 1267.03   1
  -4   4  -9 4038.81 767.443   1
  -4   4  -8 21572.7 1300.17   1
  -4   4  -7 1153.13 480.210   1
  -4   4  -7 1452.53 348.930   4
  -4   4  -6 20306.0 737.801   4
  -4   4  -6 20416.8 1152.55   1
  -4   4  -5-238.636 399.787   1
  -4   4  -5-209.523 200.832   4
  -4   4  -4 23821.9 1149.09   1
  -4   4  -3 5389.40 629.535   1
  -4   4  -3 1692.22 239.150   2
  -4   4  -2 37952.9 1207.79   1
  -4   5 -18 4625.41 1256.39   1
  -4   5 -17-2601.12 1196.54   1
  -4   5 -16 4243.16 1063.65   1
  -4   5 -15-1148.51 1017.41   1
  -4   5 -14 5426.36 1053.92   1
  -4   5 -13 882.267 779.556   1
  -4   5 -12 3571.70 890.892   1
  -4   5 -11 12417.2 1254.88   1
  -4   5 -10 12449.8 1229.66   1
  -4   5  -9 17487.6 1346.42   1
  -4   5  -8 3454.32 745.249   1
  -4   5  -8 3637.05 513.033   4
  -4   5  -7 28726.0 964.205   4
  -4   5  -7 31404.9 1603.67   1
  -4   5  -6 2385.96 627.055   1
  -4   5  -5 23188.8 1278.26   1
  -4   5  -4 1763.18 557.453   1
  -4   5  -3 15432.2 676.121   2
  -4   5  -2 11569.1 744.009   2
  -4   6 -17 5557.02 1333.54   1
  -4   6 -16-633.413 1001.32   1
  -4   6 -15 7618.55 1334.43   1
  -4   6 -14 790.251 826.200   1
  -4   6 -13 5366.92 1081.31   1
  -4   6 -12 1896.48 854.392   1
  -4   6 -11 15417.7 1483.14   1
  -4   6 -10 16692.2 1473.59   1
  -4   6  -9 16251.3 1404.26   1
  -4   6  -8 19199.4 1397.45   1
  -4   6  -7 1233.15 640.941   1
  -4   6  -6 21232.7 1313.00   1
  -4   6  -3 4408.09 632.543   2
  -4   6  -2 32710.5 1199.36   2
  -4   7 -17 3324.76 1272.05   1
  -4   7 -16 10473.9 1576.65   1
  -4   7 -15 818.319 935.635   1
  -4   7 -14 12567.4 1590.37   1
  -4   7 -13 620.254 838.407   1
  -4   7 -12 14746.0 1494.60   1
  -4   7 -11 2656.32 903.255   1
  -4   7 -10 21852.3 1624.74   1
  -4   7  -9 8692.84 1137.70   1
  -4   8 -16 4464.09 1290.15   1
  -4   8 -15 7736.55 1422.26   1
  -4   8 -14 2293.63 1097.56   1
  -4   8 -13 9517.09 1438.92   1
  -4   8 -12 2905.99 1096.96   1
  -3 -12   6 4047.35 1232.25   5
  -3 -12   7 10003.2 1527.15   5
  -3 -12   8 3519.79 1225.46   5
  -3 -12   9 11522.5 1638.91   4
  -3 -12   9 8947.75 1466.35   5
  -3 -12  10 1436.11 1011.15   5
  -3 -12  10 3754.15 1354.45   4
  -3 -12  11 4054.68 1228.39   5
  -3 -11  -1 5710.10 1236.08   5
  -3 -11   0 3013.97 1056.88   5
  -3 -11   1 4392.20 1134.69   5
  -3 -11   2 4816.27 1202.76   5
  -3 -11   3 1770.65 988.748   5
  -3 -11   4 4132.82 1147.82   5
  -3 -11   5 1341.84 948.098   5
  -3 -11   6 5730.36 1196.74   5
  -3 -11   7 2335.29 1013.84   5
  -3 -11   8 6630.56 1241.69   5
  -3 -11   9 6787.86 1359.75   4
  -3 -11   9 467.998 884.546   5
  -3 -11  10 11448.2 1542.45   4
  -3 -11  10 8758.65 1376.48   5
  -3 -11  11 2980.80 1173.32   4
  -3 -11  11 2155.73 961.462   5
  -3 -11  12 1915.35 1042.93   4
  -3 -11  13 2215.32 1036.90   4
  -3 -11  14-443.928 1013.88   4
  -3 -11  15 6320.12 1303.24   4
  -3 -10  -5 1139.46 997.961   5
  -3 -10  -4 5950.79 1225.00   5
  -3 -10  -3 1117.85 915.520   5
  -3 -10  -2 11578.0 1468.40   5
  -3 -10  -1 1816.08 943.282   5
  -3 -10   0 5925.20 1191.70   5
  -3 -10   1 2743.64 949.260   5
  -3 -10   2 3675.35 1006.52   5
  -3 -10   3 6114.13 1119.56   5
  -3 -10   4 4933.37 1070.86   5
  -3 -10   5 8898.20 1277.94   5
  -3 -10   6 6936.29 1207.85   5
  -3 -10   7 11560.0 1387.73   5
  -3 -10   8 1973.21 924.537   5
  -3 -10   9 14023.8 1585.09   4
  -3 -10   9 12723.5 1405.26   5
  -3 -10  10 1201.26 888.186   5
  -3 -10  10 2477.53 1108.76   4
  -3 -10  11 8799.83 1424.91   4
  -3 -10  11 8630.85 1236.97   5
  -3 -10  12 2309.81 1048.53   4
  -3 -10  13 1544.56 942.402   4
  -3 -10  14 4227.43 1188.35   4
  -3 -10  15 2618.25 1025.02   4
  -3 -10  16 3213.07 1095.87   4
  -3  -9  -8 1092.77 927.883   5
  -3  -9  -7 7629.65 1281.30   5
  -3  -9  -6 1893.25 974.004   5
  -3  -9  -5 7024.31 1256.28   5
  -3  -9  -4 1552.23 867.234   5
  -3  -9  -3 14039.9 1518.21   5
  -3  -9  -2 1131.15 840.913   5
  -3  -9  -1 10311.5 1310.75   5
  -3  -9   0-62.8219 720.901   5
  -3  -9   1 8345.43 1178.25   5
  -3  -9   2 2586.78 889.125   5
  -3  -9   3 7257.88 1084.58   5
  -3  -9   4 9048.67 1177.43   5
  -3  -9   5 5559.51 1014.01   5
  -3  -9   6 7797.98 1090.09   5
  -3  -9   7 2368.68 829.012   5
  -3  -9   8 9709.90 1163.31   5
  -3  -9   9 3775.15 1110.77   4
  -3  -9   9 1440.20 823.328   5
  -3  -9  10 13812.8 1340.91   5
  -3  -9  10 17184.9 1647.27   4
  -3  -9  11 4550.16 1139.31   4
  -3  -9  11 3988.49 907.492   5
  -3  -9  12 10144.5 1387.09   4
  -3  -9  12 11312.0 1207.86   5
  -3  -9  13 5174.94 1135.63   4
  -3  -9  14 10574.5 1409.55   4
  -3  -9  15 6007.68 1210.36   4
  -3  -9  16 3132.54 1012.54   4
  -3  -9  17 2459.49 1024.23   4
  -3  -8 -11 5340.51 1243.02   5
  -3  -8 -10 282.486 798.461   5
  -3  -8  -9 2524.08 982.901   5
  -3  -8  -8 2443.43 929.231   5
  -3  -8  -7 4245.67 1028.79   5
  -3  -8  -6 6546.80 1159.45   5
  -3  -8  -5 5613.92 1070.53   5
  -3  -8  -4 8939.32 1245.30   5
  -3  -8  -3 4308.68 1030.11   5
  -3  -8  -2 12056.4 1301.35   5
  -3  -8  -1 936.378 778.478   5
  -3  -8   0 9164.55 1169.13   5
  -3  -8   1 3627.75 878.817   5
  -3  -8   2 18631.5 1469.57   5
  -3  -8   3 24516.6 1650.76   5
  -3  -8   4 18827.5 1474.31   5
  -3  -8   5 19979.5 1473.42   5
  -3  -8   6 15129.6 1319.04   5
  -3  -8   7 16255.4 1314.95   5
  -3  -8   8 4494.44 868.337   5
  -3  -8   9 17928.4 1348.79   5
  -3  -8   9 18280.4 1604.43   4
  -3  -8  10 500.167 661.287   5
  -3  -8  10 1129.07 914.570   4
  -3  -8  11 9400.92 1298.07   4
  -3  -8  11 9637.86 1028.82   5
  -3  -8  12 1637.49 936.829   4
  -3  -8  12 1520.99 682.090   5
  -3  -8  13 7390.66 1190.12   4
  -3  -8  14 2184.68 951.087   4
  -3  -8  15 7223.25 1229.48   4
  -3  -8  16 1138.26 856.007   4
  -3  -8  17 960.528 843.153   4
  -3  -8  18 1329.55 935.813   4
  -3  -7 -13 89.5409 840.381   5
  -3  -7 -12 5947.88 1162.99   5
  -3  -7 -11-280.808 788.634   5
  -3  -7 -10 3945.94 1041.31   5
  -3  -7  -9 1551.47 812.191   5
  -3  -7  -8 3395.00 914.733   5
  -3  -7  -7 3268.95 908.205   5
  -3  -7  -6 4242.11 973.112   5
  -3  -7  -5 9691.12 1196.57   5
  -3  -7  -4 6293.57 1000.86   5
  -3  -7  -3 16897.4 1417.06   5
  -3  -7  -2 4923.43 915.134   5
  -3  -7  -1 17773.3 1403.06   5
  -3  -7   0 207.335 601.756   5
  -3  -7   1 20097.4 1411.10   5
  -3  -7   2 6314.71 922.781   5
  -3  -7   3 20164.6 1383.02   5
  -3  -7   4 19871.7 1373.48   5
  -3  -7   5 18279.3 1312.94   5
  -3  -7   6 8391.62 981.941   5
  -3  -7   7 4592.51 777.200   5
  -3  -7   8 15965.6 1157.58   5
  -3  -7   9 1869.35 843.191   4
  -3  -7   9 1139.25 578.655   5
  -3  -7  10 7932.47 1142.91   4
  -3  -7  10 8656.45 913.106   5
  -3  -7  11 2630.46 922.861   4
  -3  -7  11 2070.25 611.418   5
  -3  -7  12 11884.7 1344.25   4
  -3  -7  13 1319.37 899.224   4
  -3  -7  14 15304.3 1500.84   4
  -3  -7  15-93.4920 746.595   4
  -3  -7  16 7593.42 1178.99   4
  -3  -7  17 1145.20 832.293   4
  -3  -7  18 1084.80 846.504   4
  -3  -7  19 2719.66 1030.09   4
  -3  -6 -13 5766.07 1122.14   5
  -3  -6 -12 1018.12 797.380   5
  -3  -6 -11 8126.85 1219.03   5
  -3  -6 -10 381.584 692.201   5
  -3  -6  -9 8190.00 1139.66   5
  -3  -6  -8 4686.00 934.799   5
  -3  -6  -7 3195.28 819.425   5
  -3  -6  -6 2873.74 785.980   5
  -3  -6  -5 10520.2 1141.82   5
  -3  -6  -4 11196.4 1138.99   5
  -3  -6  -3 11246.1 1158.96   5
  -3  -6  -2 22326.6 1423.31   5
  -3  -6  -1 2427.49 677.418   5
  -3  -6   0 22161.9 1370.06   5
  -3  -6   1 1069.17 606.161   5
  -3  -6   2 34609.7 1622.35   5
  -3  -6   3 13190.3 1083.83   5
  -3  -6   4 43710.8 1773.50   5
  -3  -6   5 16342.1 1155.53   5
  -3  -6   6 15960.2 1107.74   5
  -3  -6   7 4931.99 718.316   5
  -3  -6   8 7388.70 767.392   5
  -3  -6   8 8463.62 1075.00   4
  -3  -6   9 5925.06 706.983   5
  -3  -6   9 6730.63 1041.48   4
  -3  -6  10 7157.81 761.704   5
  -3  -6  10 6909.16 1039.52   4
  -3  -6  11 10823.3 843.480   5
  -3  -6  11 11535.0 1234.32   4
  -3  -6  12 4826.99 969.859   4
  -3  -6  13 11630.9 1262.43   4
  -3  -6  14 274.468 707.335   4
  -3  -6  15 10254.3 1240.85   4
  -3  -6  16 1522.27 831.850   4
  -3  -6  17 4121.57 1028.98   4
  -3  -6  18 1840.03 896.342   4
  -3  -6  19 1106.56 925.495   4
  -3  -5 -14 2996.18 866.389   5
  -3  -5 -13 2116.41 836.468   5
  -3  -5 -12 9598.19 1192.38   5
  -3  -5 -11 412.889 634.551   5
  -3  -5 -10 9472.65 1133.85   5
  -3  -5  -9 737.864 618.820   5
  -3  -5  -8 7565.19 991.465   5
  -3  -5  -7 500.312 604.729   5
  -3  -5  -6 13209.6 1181.25   5
  -3  -5  -5 3727.56 774.024   5
  -3  -5  -4 26235.2 1523.13   5
  -3  -5  -3 13309.5 1105.59   5
  -3  -5  -2 4787.09 771.437   5
  -3  -5  -1 19460.9 1227.27   5
  -3  -5   0 1168.65 585.706   5
  -3  -5   1 25954.5 1346.16   5
  -3  -5   2 12190.5 989.623   5
  -3  -5   3 23264.6 1206.30   5
  -3  -5   4 16294.5 1065.41   5
  -3  -5   5 49091.8 1654.79   5
  -3  -5   6 5919.13 707.873   5
  -3  -5   7 25915.1 1185.98   5
  -3  -5   8 8654.98 1031.41   4
  -3  -5   8 8128.90 727.243   5
  -3  -5   9 17143.9 917.440   5
  -3  -5   9 19122.3 1382.75   4
  -3  -5  10 10892.8 1141.12   4
  -3  -5  10 10324.9 746.302   5
  -3  -5  11 11124.8 1164.44   4
  -3  -5  12 13621.8 1302.63   4
  -3  -5  13 2205.18 842.137   4
  -3  -5  14 8392.57 1111.36   4
  -3  -5  15 297.224 688.594   4
  -3  -5  16 5926.75 1056.15   4
  -3  -5  17 1942.65 852.623   4
  -3  -5  18 5921.56 1147.13   4
  -3  -5  19 1440.00 898.478   4
  -3  -4 -15 4478.02 1227.97   2
  -3  -4 -14 5914.10 1251.11   2
  -3  -4 -14 3389.18 879.815   5
  -3  -4 -13 6633.35 1257.43   2
  -3  -4 -13 3603.77 828.150   5
  -3  -4 -12 2408.85 791.557   5
  -3  -4 -12 4522.64 1084.63   2
  -3  -4 -11 9882.52 1099.04   5
  -3  -4 -11 14077.6 1482.31   2
  -3  -4 -10 864.361 647.989   5
  -3  -4  -9 12645.5 1142.37   5
  -3  -4  -8 506.020 568.388   5
  -3  -4  -7 14049.6 1133.87   5
  -3  -4  -6 2684.73 740.344   5
  -3  -4  -5 18920.6 1220.02   5
  -3  -4  -4 11006.2 963.803   5
  -3  -4  -3 15247.3 1064.43   5
  -3  -4  -2 16427.2 1057.22   5
  -3  -4  -1 2609.05 554.595   5
  -3  -4   0 27329.6 1262.29   5
  -3  -4   1 23327.7 1173.87   5
  -3  -4   2 22694.3 1134.08   5
  -3  -4   3 38383.9 1396.09   5
  -3  -4   4 78538.8 1907.25   5
  -3  -4   5 13028.2 861.477   5
  -3  -4   6 61608.0 1591.52   5
  -3  -4   7 11954.2 1086.53   4
  -3  -4   7 10617.3 733.820   5
  -3  -4   8 25285.9 980.800   5
  -3  -4   8 25067.2 1463.78   4
  -3  -4   9 17446.9 1318.02   4
  -3  -4   9 15759.7 790.758   5
  -3  -4  10 15586.6 700.903   5
  -3  -4  10 15697.5 1218.60   4
  -3  -4  11 18483.8 1414.97   4
  -3  -4  12 4883.34 857.994   4
  -3  -4  13 10413.5 1182.44   4
  -3  -4  14 373.579 637.391   4
  -3  -4  15 9528.59 1173.82   4
  -3  -4  16-494.065 695.864   4
  -3  -4  17 11909.2 1401.21   4
  -3  -4  18 610.720 799.628   4
  -3  -4  19 6455.19 1258.03   4
  -3  -3 -17 4178.31 1289.10   2
  -3  -3 -16 2438.10 1100.89   2
  -3  -3 -15 6796.44 1280.47   2
  -3  -3 -14 1370.12 942.850   2
  -3  -3 -14 421.172 605.157   5
  -3  -3 -13 5519.75 879.588   5
  -3  -3 -13 5523.31 1122.38   2
  -3  -3 -12 5638.42 886.333   5
  -3  -3 -12 8022.14 1176.16   2
  -3  -3 -11 2535.62 701.620   5
  -3  -3 -11 2494.64 932.664   2
  -3  -3 -10 14717.5 1377.52   2
  -3  -3 -10 12413.2 1072.25   5
  -3  -3  -9 2884.27 857.560   2
  -3  -3  -9 1989.73 597.398   5
  -3  -3  -8 23328.6 1512.61   2
  -3  -3  -8 20150.0 1236.24   5
  -3  -3  -7 2838.04 688.555   5
  -3  -3  -6 8790.13 836.335   5
  -3  -3  -5 10141.3 880.032   5
  -3  -3  -4 20526.4 1112.56   5
  -3  -3  -3 10977.7 827.748   5
  -3  -3  -2 12864.4 871.902   5
  -3  -3  -1 47175.7 1515.32   5
  -3  -3   0 57821.8 1584.73   5
  -3  -3   1 65036.0 1648.41   5
  -3  -3   2 118932. 2123.15   5
  -3  -3   3 118177. 2083.03   5
  -3  -3   4 15078.8 840.906   5
  -3  -3   5 105844. 1896.28   5
  -3  -3   6 566.956 315.261   5
  -3  -3   6 2366.49 675.798   4
  -3  -3   7 25065.5 869.258   5
  -3  -3   7 26452.2 1418.47   4
  -3  -3   8 4298.00 416.072   5
  -3  -3   8 4277.89 734.321   4
  -3  -3   9 21764.1 656.628   5
  -3  -3   9 24201.8 1375.21   4
  -3  -3  10 11851.2 1102.75   4
  -3  -3  11 3142.60 718.340   4
  -3  -3  12 3338.72 789.386   4
  -3  -3  13 2046.64 680.186   4
  -3  -3  14 5912.18 957.652   4
  -3  -3  15 292.293 638.028   4
  -3  -3  16 13984.2 1412.46   4
  -3  -3  17 963.347 773.360   4
  -3  -3  18 6898.66 1180.31   4
  -3  -3  19 443.949 846.991   4
  -3  -2 -18 3309.57 1186.22   2
  -3  -2 -17 675.038 986.739   2
  -3  -2 -16 6539.69 1219.76   2
  -3  -2 -15 729.542 833.716   2
  -3  -2 -14 11404.8 1364.10   2
  -3  -2 -14 10526.1 1072.64   5
  -3  -2 -13 4133.44 947.277   2
  -3  -2 -13 3816.97 725.588   5
  -3  -2 -12 8121.59 1133.53   2
  -3  -2 -12 6975.90 873.840   5
  -3  -2 -11 12558.7 1017.77   5
  -3  -2 -11 14176.0 1298.61   2
  -3  -2 -10 5360.94 903.043   2
  -3  -2 -10 5350.91 718.457   5
  -3  -2  -9 26621.0 1535.71   2
  -3  -2  -9 25673.1 1296.61   5
  -3  -2  -8 12768.7 1206.46   2
  -3  -2  -8 11352.6 964.089   5
  -3  -2  -7 32076.1 1492.43   2
  -3  -2  -7 31419.3 1389.37   5
  -3  -2  -6 8209.86 920.838   2
  -3  -2  -6 7861.73 864.507   5
  -3  -2  -5 28272.2 1282.40   5
  -3  -2  -4 211.635 416.250   5
  -3  -2  -3 45337.3 1533.93   5
  -3  -2  -2 14104.5 887.189   5
  -3  -2  -1 73760.6 1792.29   5
  -3  -2  -1 74698.6 1672.93   7
  -3  -2   0 30857.1 1263.63   6
  -3  -2   0 29972.0 1080.62   7
  -3  -2   0 31642.4 1176.60   5
  -3  -2   1 61407.0 1711.79   6
  -3  -2   1 59965.5 1472.82   7
  -3  -2   1 60779.9 1525.34   5
  -3  -2   2 34184.2 1308.39   6
  -3  -2   2 38651.6 1183.57   7
  -3  -2   2 40326.9 1203.81   5
  -3  -2   3 10599.7 690.831   7
  -3  -2   3 12373.7 708.561   5
  -3  -2   4 39677.7 1201.80   7
  -3  -2   4 38647.1 1069.53   5
  -3  -2   5 1568.54 542.339   4
  -3  -2   5 593.963 288.416   5
  -3  -2   5 348.872 305.896   7
  -3  -2   5 868.817 395.922   1
  -3  -2   6 43243.9 970.425   5
  -3  -2   6 47556.0 1706.78   4
  -3  -2   6 46375.5 1295.83   7
  -3  -2   7 2147.88 278.672   5
  -3  -2   7 1636.70 515.327   4
  -3  -2   7 2102.23 370.215   7
  -3  -2   8 21983.6 565.987   5
  -3  -2   8 25993.8 964.502   7
  -3  -2   8 24565.2 1299.99   4
  -3  -2   9 11733.7 709.768   7
  -3  -2   9 14162.0 1096.39   4
  -3  -2  10 11425.7 641.169   7
  -3  -2  10 11480.4 992.249   4
  -3  -2  11 5582.28 887.310   4
  -3  -2  11 3449.96 428.204   7
  -3  -2  12 7093.63 899.945   4
  -3  -2  13 1923.62 703.897   4
  -3  -2  14 2967.00 782.151   4
  -3  -2  15 13184.9 1307.76   4
  -3  -2  16 1176.74 766.711   4
  -3  -2  17 6253.91 1093.24   4
  -3  -2  18 1336.77 849.202   4
  -3  -1 -18 863.461 882.998   1
  -3  -1 -18 166.379 914.065   2
  -3  -1 -17 9124.86 1347.75   2
  -3  -1 -16 901.750 863.824   2
  -3  -1 -15 7140.19 1149.85   2
  -3  -1 -14 469.210 523.427   5
  -3  -1 -14 189.339 740.370   2
  -3  -1 -13 7678.61 841.217   5
  -3  -1 -13 6871.92 1033.35   2
  -3  -1 -12-636.418 776.902   2
  -3  -1 -12 477.720 454.057   5
  -3  -1 -11 6035.53 899.204   2
  -3  -1 -11 7657.77 829.370   5
  -3  -1 -10 6668.74 573.436   7
  -3  -1 -10 7234.69 878.255   2
  -3  -1 -10 8425.74 829.570   5
  -3  -1  -9 8171.65 944.911   2
  -3  -1  -9 9329.94 871.596   5
  -3  -1  -9 6928.61 587.911   7
  -3  -1  -8 24680.8 1310.24   2
  -3  -1  -8 23027.3 963.955   7
  -3  -1  -8 25797.8 1251.35   5
  -3  -1  -7 7688.90 942.279   2
  -3  -1  -7 7022.99 806.868   5
  -3  -1  -7 5482.95 696.931   7
  -3  -1  -6 26724.2 1227.86   5
  -3  -1  -6 26294.8 1020.81   7
  -3  -1  -6 27915.8 1230.31   2
  -3  -1  -5 313.620 461.130   2
  -3  -1  -5 256.238 447.880   5
  -3  -1  -5 136.905 341.354   7
  -3  -1  -4 57658.8 1467.10   7
  -3  -1  -3 6212.08 542.183   7
  -3  -1  -2 68217.5 1673.21   6
  -3  -1  -2 66538.0 1511.69   7
  -3  -1  -1 54756.7 1348.30   7
  -3  -1  -1 55393.4 1484.87   6
  -3  -1   0 75122.5 1754.36   6
  -3  -1   0 75083.5 1555.14   7
  -3  -1   1 37291.6 1146.63   7
  -3  -1   2 34597.9 1058.07   7
  -3  -1   3 14885.1 861.363   3
  -3  -1   3 15539.7 729.778   7
  -3  -1   4 9822.50 745.804   3
  -3  -1   4 10326.9 612.755   7
  -3  -1   4 10651.2 779.736   4
  -3  -1   5 29806.1 1026.01   1
  -3  -1   5 29048.2 956.336   7
  -3  -1   5 28407.1 1194.06   4
  -3  -1   6 2255.18 492.376   4
  -3  -1   6 2444.24 386.805   1
  -3  -1   6 2819.68 371.398   7
  -3  -1   7 23967.1 861.852   7
  -3  -1   7 23202.2 1183.20   4
  -3  -1   7 24672.9 999.123   1
  -3  -1   8 144.073 100.069   5
  -3  -1   8 495.149 467.495   4
  -3  -1   8 202.315 265.444   7
  -3  -1   9 25650.5 872.845   7
  -3  -1   9 26829.3 1342.24   4
  -3  -1  10 5025.67 792.700   4
  -3  -1  10 3409.18 380.661   7
  -3  -1  11 13219.7 580.948   7
  -3  -1  11 15525.5 1189.28   4
  -3  -1  12 1801.18 661.481   4
  -3  -1  13 16600.7 1322.68   4
  -3  -1  14 5873.09 957.634   4
  -3  -1  15 3969.60 868.534   4
  -3  -1  16 7001.75 1076.75   4
  -3   0 -19 591.037 923.515   2
  -3   0 -18 5064.78 1111.62   2
  -3   0 -18 6436.29 1246.58   1
  -3   0 -17-225.924 795.218   1
  -3   0 -17-1571.04 995.897   2
  -3   0 -16 4294.37 982.567   2
  -3   0 -16 4761.35 1048.70   1
  -3   0 -15-482.091 823.013   2
  -3   0 -14 5795.04 743.107   5
  -3   0 -14 5005.18 929.318   2
  -3   0 -13 16.5461 706.829   2
  -3   0 -13 736.228 530.615   5
  -3   0 -12 10590.5 939.079   5
  -3   0 -12 9476.08 1016.57   2
  -3   0 -11 6437.12 848.812   2
  -3   0 -11 7104.70 771.431   5
  -3   0 -10 16179.4 1043.04   5
  -3   0 -10 13990.9 1055.40   2
  -3   0 -10 13084.7 724.907   7
  -3   0  -9 18588.3 1118.07   2
  -3   0  -9 19601.6 1126.89   5
  -3   0  -9 17754.5 846.050   7
  -3   0  -8 6988.52 818.759   2
  -3   0  -8 6281.07 591.562   7
  -3   0  -7 29207.5 1033.55   7
  -3   0  -7 29661.1 1223.81   2
  -3   0  -6 9184.82 723.714   2
  -3   0  -6 8293.60 612.159   7
  -3   0  -5 48063.1 1342.11   2
  -3   0  -5 44996.1 1272.43   7
  -3   0  -4 6687.06 555.720   7
  -3   0  -4 6267.59 536.967   2
  -3   0  -3 92976.0 1735.42   6
  -3   0  -3 89448.3 1723.26   7
  -3   0  -2 3314.10 418.368   7
  -3   0  -2 3233.58 441.003   6
  -3   0  -1 21403.5 845.079   7
  -3   0   0 9754.53 631.164   7
  -3   0   1 67719.1 1535.93   3
  -3   0   1 69448.1 1414.85   7
  -3   0   2 41423.3 1120.20   7
  -3   0   2 39171.4 1240.37   3
  -3   0   3 11801.2 749.162   3
  -3   0   3 10775.5 682.483   4
  -3   0   3 11337.8 612.717   7
  -3   0   4 850.282 356.935   4
  -3   0   4 1125.50 364.486   3
  -3   0   4 1686.99 321.484   7
  -3   0   4 665.531 214.873   1
  -3   0   5 22098.6 800.812   7
  -3   0   5 22856.7 714.142   1
  -3   0   5 21652.8 977.167   4
  -3   0   6 10038.6 746.113   4
  -3   0   6 9725.72 526.035   1
  -3   0   6 10257.6 560.435   7
  -3   0   7 28345.4 843.653   7
  -3   0   7 28954.5 1219.90   4
  -3   0   7 29559.3 733.515   5
  -3   0   8 33894.2 723.667   5
  -3   0   8 32910.4 868.992   7
  -3   0   8 35226.2 1421.25   4
  -3   0   9 3020.07 624.254   4
  -3   0   9 1499.94 188.604   5
  -3   0   9 2379.68 332.683   7
  -3   0  10 20475.2 617.488   7
  -3   0  10 24456.3 1346.86   4
  -3   0  11 2207.48 653.992   4
  -3   0  11 1528.55 199.151   7
  -3   0  12 10922.4 1075.86   4
  -3   0  13 1757.74 664.717   4
  -3   0  14 8955.05 1090.76   4
  -3   1 -20 2508.76 1076.61   2
  -3   1 -19 3409.12 1063.29   2
  -3   1 -19 4610.77 1196.81   1
  -3   1 -18 405.391 846.819   2
  -3   1 -18 724.924 901.242   1
  -3   1 -17 6495.11 1205.10   1
  -3   1 -16 1135.58 805.211   1
  -3   1 -15 10468.9 1294.07   1
  -3   1 -14 749.692 529.393   5
  -3   1 -14 253.322 680.171   1
  -3   1 -13 10050.5 941.957   5
  -3   1 -13 9553.15 1135.01   1
  -3   1  -6 22217.8 922.641   7
  -3   1  -5 13447.9 623.545   6
  -3   1  -5 11706.1 696.964   7
  -3   1  -4 56318.5 1080.75   2
  -3   1  -4 61063.8 1218.98   6
  -3   1  -4 57078.7 1422.92   7
  -3   1  -3 23969.8 590.884   2
  -3   1  -3 24640.4 924.685   7
  -3   1  -2 20087.9 842.340   7
  -3   1  -1 639.797 285.529   3
  -3   1  -1 704.747 311.555   7
  -3   1   0 10463.9 606.056   7
  -3   1   0 10452.7 601.050   3
  -3   1   1 11303.5 613.800   7
  -3   1   1 11195.4 651.530   3
  -3   1   2 8287.73 598.422   3
  -3   1   2 6639.79 448.574   4
  -3   1   2 7854.88 535.486   7
  -3   1   3 18110.7 872.984   3
  -3   1   3 17664.1 739.253   7
  -3   1   3 15839.3 695.904   4
  -3   1   4 32477.0 1033.80   4
  -3   1   4 33580.8 986.606   7
  -3   1   5 440.518 317.819   4
  -3   1   5 669.668 285.142   7
  -3   1   6 44822.7 1126.37   5
  -3   1   6 42390.2 1369.19   4
  -3   1   6 40944.1 1032.24   7
  -3   1   7 49420.1 1139.59   5
  -3   1   7 49559.6 1574.57   4
  -3   1   7 45096.7 1043.85   7
  -3   1   8 7745.63 504.472   5
  -3   1   8 6306.52 421.154   7
  -3   1   8 7562.71 740.000   4
  -3   1   9 44161.7 1056.97   5
  -3   1   9 43954.1 1712.02   4
  -3   1   9 39211.3 913.022   7
  -3   1  10 117.944 168.383   7
  -3   1  10 535.301 237.557   5
  -3   1  10 533.917 474.134   4
  -3   1  11 13889.9 1100.50   4
  -3   2 -19 4288.39 1190.99   1
  -3   2 -18 2954.73 1070.87   1
  -3   2 -17 2165.95 951.632   1
  -3   2 -16 7136.39 1179.29   1
  -3   2 -15 356.498 493.529   5
  -3   2 -15 1160.62 761.688   1
  -3   2 -14 6719.46 1041.91   1
  -3   2 -13 766.825 645.143   1
  -3   2 -13 378.706 343.042   3
  -3   2 -12 5979.15 519.399   3
  -3   2 -12 7071.32 944.162   1
  -3   2 -11 1372.84 581.711   1
  -3   2 -10 18612.1 1273.82   1
  -3   2  -9 15500.5 1153.28   1
  -3   2  -8 19074.7 1184.79   1
  -3   2  -8 20452.9 662.128   6
  -3   2  -7 21085.0 1150.72   1
  -3   2  -7 22358.7 642.606   6
  -3   2  -6 6614.64 577.537   4
  -3   2  -6 6749.39 672.476   1
  -3   2  -5 30859.1 1208.48   1
  -3   2  -5 32525.9 975.453   4
  -3   2  -4 30733.1 714.344   3
  -3   2  -4 29342.5 1097.02   1
  -3   2  -3 51987.8 1306.12   1
  -3   2  -3 55906.5 1008.27   3
  -3   2  -2 23098.8 730.263   3
  -3   2  -2 22150.5 796.808   1
  -3   2  -2 22742.2 935.861   7
  -3   2  -1 71250.2 1562.55   7
  -3   2  -1 66686.1 1174.16   1
  -3   2  -1 69432.8 1330.96   3
  -3   2   0 25901.6 917.310   3
  -3   2   0 26525.2 975.101   7
  -3   2   1 51911.1 1292.33   7
  -3   2   1 51748.0 1343.27   3
  -3   2   1 51128.2 824.513   4
  -3   2   2 5108.75 490.054   7
  -3   2   2 4506.34 377.145   4
  -3   2   3 77053.2 1382.05   4
  -3   2   3 75032.6 1535.18   7
  -3   2   4 848.381 310.043   4
  -3   2   4 504.429 321.221   5
  -3   2   4 469.271 274.169   7
  -3   2   5 38787.1 1241.60   5
  -3   2   5 35012.3 1042.20   7
  -3   2   5 36992.2 1213.02   4
  -3   2   6 5164.57 577.357   4
  -3   2   6 4987.52 512.225   5
  -3   2   6 5490.60 476.109   7
  -3   2   7 19103.9 882.662   5
  -3   2   7 17657.6 753.496   7
  -3   2   7 17749.3 990.599   4
  -3   2   8 17660.5 715.403   7
  -3   2   8 19343.5 911.393   5
  -3   2   9 861.727 365.203   5
  -3   2  10 12602.3 752.557   5
  -3   3 -19 1525.02 1007.30   1
  -3   3 -18 3953.08 1111.40   1
  -3   3 -17 6488.70 1201.73   1
  -3   3 -16 1387.26 839.323   1
  -3   3 -15 12893.5 1423.45   1
  -3   3 -14 902.182 726.373   1
  -3   3 -13 28486.0 1807.68   1
  -3   3 -12 6587.73 978.104   1
  -3   3 -11 32912.0 1778.39   1
  -3   3 -10 587.028 520.872   1
  -3   3  -9 52273.3 1993.94   1
  -3   3  -8 2359.87 568.457   1
  -3   3  -7 26551.0 1310.18   1
  -3   3  -7 25702.3 985.979   4
  -3   3  -6 122.633 386.500   1
  -3   3  -6 119.508 252.329   4
  -3   3  -5 36140.0 1328.23   1
  -3   3  -5 34422.3 890.167   4
  -3   3  -4 2821.86 472.420   1
  -3   3  -4 1359.94 241.842   4
  -3   3  -3 53989.8 1387.66   1
  -3   3  -3 43531.7 648.997   4
  -3   3  -2 10349.1 643.920   1
  -3   3  -1 7678.31 520.339   1
  -3   4 -19 4909.55 1230.16   1
  -3   4 -18 435.428 926.084   1
  -3   4 -17 10967.7 1426.12   1
  -3   4 -16 3041.73 904.898   1
  -3   4 -15 6816.89 1099.22   1
  -3   4 -14 12329.5 1348.80   1
  -3   4 -13 6841.31 1046.16   1
  -3   4 -12 7295.91 999.970   1
  -3   4 -11 3209.27 750.550   1
  -3   4 -10 12582.5 1107.19   1
  -3   4  -9 1987.02 578.449   1
  -3   4  -8 10549.7 949.597   1
  -3   4  -7 3063.18 415.169   4
  -3   4  -7 2359.86 545.706   1
  -3   4  -6 7305.74 751.986   1
  -3   4  -6 6655.48 486.483   4
  -3   4  -5 7428.36 729.697   1
  -3   4  -5 7426.02 451.743   4
  -3   4  -4 27120.5 1198.70   1
  -3   4  -3 33697.8 1221.37   1
  -3   4  -1 120430. 1779.71   2
  -3   4   0 24909.1 957.855   2
  -3   5 -18 7806.08 1450.05   1
  -3   5 -17-607.159 1050.24   1
  -3   5 -16 5502.49 1162.17   1
  -3   5 -15 5532.10 1131.89   1
  -3   5 -14 5043.11 1056.63   1
  -3   5 -13 11466.9 1322.97   1
  -3   5 -12 164.142 753.135   1
  -3   5 -11 13154.4 1285.52   1
  -3   5 -10 2231.15 727.278   1
  -3   5  -9 27236.6 1583.95   1
  -3   5  -8 1817.08 624.243   1
  -3   5  -8 2795.96 517.249   4
  -3   5  -7 22971.9 1364.43   1
  -3   5  -6 2232.64 606.302   1
  -3   5  -5 20921.6 1165.52   1
  -3   5  -2 27920.8 1014.85   2
  -3   5  -1 22183.8 985.538   2
  -3   6 -18 229.276 1029.97   1
  -3   6 -17 7132.33 1402.72   1
  -3   6 -16 807.165 942.149   1
  -3   6 -15 10136.3 1449.35   1
  -3   6 -14 5529.87 1146.00   1
  -3   6 -13 3776.02 993.812   1
  -3   6 -12 10198.3 1265.88   1
  -3   6 -11 3424.46 896.795   1
  -3   6 -10 10888.9 1219.30   1
  -3   6  -9 6742.30 953.611   1
  -3   6  -8 31643.9 1686.97   1
  -3   6  -7 1362.37 661.573   1
  -3   7 -17 1364.92 1082.96   1
  -3   7 -16 10417.3 1517.67   1
  -3   7 -15 1198.86 924.077   1
  -3   7 -14 7605.80 1283.21   1
  -3   7 -13 6555.49 1214.66   1
  -3   7 -12 6480.65 1139.81   1
  -3   7 -11 7888.06 1182.85   1
  -3   7 -10 15514.5 1448.79   1
  -3   8 -17 9993.30 1613.88   1
  -3   8 -16 2931.02 1192.90   1
  -3   8 -15 9666.77 1515.17   1
  -3   8 -14 3223.53 1149.25   1
  -2 -12   4 2841.68 1193.72   5
  -2 -12   5 4309.50 1222.79   5
  -2 -12   6 4034.21 1192.75   5
  -2 -12   7 6752.36 1345.26   5
  -2 -12   8 4364.89 1239.98   5
  -2 -12   9 5800.08 1356.60   5
  -2 -11  -2 2944.34 1122.60   5
  -2 -11  -1 3954.53 1170.24   5
  -2 -11   0 4981.24 1228.28   5
  -2 -11   1 812.037 957.581   5
  -2 -11   2 7474.35 1350.62   5
  -2 -11   3 528.010 965.031   5
  -2 -11   4 5510.31 1215.60   5
  -2 -11   5 2403.61 1029.23   5
  -2 -11   6 6606.79 1264.55   5
  -2 -11   7 3617.93 1057.48   5
  -2 -11   8 15564.8 1630.13   4
  -2 -11   8 9550.62 1397.04   5
  -2 -11   9 6303.65 1286.44   4
  -2 -11   9 4292.98 1132.75   5
  -2 -11  10 6470.83 1278.45   5
  -2 -11  10 6205.02 1233.98   4
  -2 -11  11 9755.05 1383.75   4
  -2 -11  12 1282.63 946.644   4
  -2 -11  13 2800.53 1010.81   7
  -2 -11  13 66.4373 920.940   4
  -2 -11  14 649.263 891.847   7
  -2 -11  15 3996.78 1115.09   7
  -2 -11  16-480.145 899.997   7
  -2 -10  -6 7582.22 1350.90   5
  -2 -10  -5 565.158 860.021   5
  -2 -10  -4 6282.08 1251.65   5
  -2 -10  -3 1701.78 890.934   5
  -2 -10  -2 5568.62 1165.03   5
  -2 -10  -1 7011.86 1251.91   5
  -2 -10   0 4026.82 1045.73   5
  -2 -10   1 4957.12 1104.23   5
  -2 -10   2 3141.81 995.245   5
  -2 -10   3 10365.5 1384.33   5
  -2 -10   4 4038.67 1063.68   5
  -2 -10   5 10529.7 1336.23   5
  -2 -10   6 4930.75 1126.16   5
  -2 -10   7 12067.0 1403.89   5
  -2 -10   8 2900.27 982.556   5
  -2 -10   8 6985.70 1279.07   4
  -2 -10   9 10146.8 1262.61   5
  -2 -10   9 12664.4 1463.90   4
  -2 -10  10 5358.01 1152.16   4
  -2 -10  10 5759.50 1136.47   5
  -2 -10  11 2903.99 976.117   4
  -2 -10  12 6618.71 1168.53   4
  -2 -10  13 197.552 848.699   4
  -2 -10  14 6330.66 1154.61   4
  -2 -10  14 4906.12 1087.54   7
  -2 -10  15 1140.37 895.048   4
  -2 -10  15 521.446 810.936   7
  -2 -10  16 4555.29 1088.79   7
  -2 -10  16 6066.77 1171.84   4
  -2 -10  17-127.462 874.588   4
  -2  -9 -10 3049.96 1060.70   5
  -2  -9  -9 5067.34 1173.25   5
  -2  -9  -8 2492.44 988.755   5
  -2  -9  -7 8004.71 1324.63   5
  -2  -9  -6 289.173 796.875   5
  -2  -9  -5 7993.18 1258.52   5
  -2  -9  -4 317.987 753.573   5
  -2  -9  -3 7349.06 1227.15   5
  -2  -9  -2 1978.34 889.779   5
  -2  -9  -1 3977.45 979.237   5
  -2  -9   0 4266.53 968.888   5
  -2  -9   1 159.300 676.488   5
  -2  -9   2 6546.17 1067.14   5
  -2  -9   3 3763.82 953.075   5
  -2  -9   4 24538.3 1711.93   5
  -2  -9   5 14181.1 1421.76   5
  -2  -9   6 25152.6 1733.08   5
  -2  -9   7 7317.21 1231.52   5
  -2  -9   8 25029.2 1780.88   4
  -2  -9   8 22237.7 1602.67   5
  -2  -9   9 4071.61 1081.10   4
  -2  -9   9 1967.28 872.307   5
  -2  -9  10 17834.0 1445.70   5
  -2  -9  10 16854.8 1556.39   4
  -2  -9  11 7146.69 1211.45   4
  -2  -9  12 5622.69 1084.59   4
  -2  -9  13 7216.12 1188.84   4
  -2  -9  14 4022.31 1022.64   4
  -2  -9  15 3032.80 980.610   4
  -2  -9  15 851.581 752.200   7
  -2  -9  16-245.311 765.403   7
  -2  -9  16 519.247 843.087   4
  -2  -9  17 1401.44 879.979   4
  -2  -9  18-492.177 870.867   4
  -2  -8 -12 1893.44 975.222   5
  -2  -8 -11 3873.01 1121.03   5
  -2  -8 -10 1298.95 915.054   5
  -2  -8  -9 1117.26 845.081   5
  -2  -8  -8 5346.26 1113.67   5
  -2  -8  -7 805.194 788.155   5
  -2  -8  -6 10337.4 1297.09   5
  -2  -8  -5 2090.83 922.990   5
  -2  -8  -4 15227.2 1465.90   5
  -2  -8  -3 6960.52 1105.72   5
  -2  -8  -2 16948.8 1481.55   5
  -2  -8  -1 5062.84 955.327   5
  -2  -8   0 4702.00 913.422   5
  -2  -8   1 6387.67 979.648   5
  -2  -8   2 15433.2 1342.92   5
  -2  -8   3 24841.7 1642.49   5
  -2  -8   4 17287.9 1371.06   5
  -2  -8   5 38171.2 1899.49   5
  -2  -8   6 10993.0 1221.45   5
  -2  -8   7 5882.55 924.321   5
  -2  -8   8 2097.32 866.169   4
  -2  -8   8-39.3245 604.713   5
  -2  -8   9 14062.5 1354.34   4
  -2  -8   9 12622.8 1157.77   5
  -2  -8  10 1544.78 870.040   4
  -2  -8  10 1089.19 733.767   5
  -2  -8  11 3947.38 906.971   4
  -2  -8  12 5693.24 1029.74   4
  -2  -8  13 4851.93 961.676   4
  -2  -8  14 5539.27 1068.39   4
  -2  -8  15 3223.98 858.595   7
  -2  -8  15 3087.47 896.704   4
  -2  -8  16 1943.89 780.217   7
  -2  -8  16 2798.66 914.108   4
  -2  -8  17-5.77556 792.486   4
  -2  -8  18 4598.54 1108.79   4
  -2  -8  19 791.416 911.689   4
  -2  -7 -13 1196.58 883.172   5
  -2  -7 -12 6625.93 1210.20   5
  -2  -7 -11 1875.02 876.924   5
  -2  -7 -10 3094.97 956.292   5
  -2  -7  -9 1204.75 786.320   5
  -2  -7  -8 1612.85 766.191   5
  -2  -7  -7 10969.6 1268.58   5
  -2  -7  -6 3672.93 915.689   5
  -2  -7  -5 9539.89 1157.71   5
  -2  -7  -4 2874.98 852.415   5
  -2  -7  -3 17029.1 1380.90   5
  -2  -7  -2 1272.36 740.424   5
  -2  -7  -1 12665.2 1179.68   5
  -2  -7   0 2739.48 732.749   5
  -2  -7   1 11882.9 1113.41   5
  -2  -7   2 22220.0 1442.29   5
  -2  -7   3 26381.4 1530.29   5
  -2  -7   4 49896.1 2010.76   5
  -2  -7   5 24289.9 1483.65   5
  -2  -7   6 15663.9 1174.73   5
  -2  -7   7 4089.05 739.365   5
  -2  -7   8 6555.17 849.051   5
  -2  -7   8 8026.50 1049.07   4
  -2  -7   9 924.406 694.368   4
  -2  -7   9 666.403 618.471   5
  -2  -7  10 12693.7 1031.74   5
  -2  -7  10 11090.9 1178.18   4
  -2  -7  11 1260.51 732.875   4
  -2  -7  12 14349.5 1336.08   4
  -2  -7  13 7012.50 1111.27   4
  -2  -7  14 12547.2 1315.53   4
  -2  -7  15 4597.75 980.974   4
  -2  -7  16 1610.90 803.195   4
  -2  -7  17 3463.22 968.132   4
  -2  -7  18 1027.88 842.989   4
  -2  -7  19 4480.60 1127.30   4
  -2  -6 -13 8392.97 1188.45   5
  -2  -6 -12 2466.29 883.430   5
  -2  -6 -11 3686.49 910.491   5
  -2  -6 -10 23.8546 645.008   5
  -2  -6  -9 251.179 651.276   5
  -2  -6  -8 5111.86 938.973   5
  -2  -6  -7 2578.43 759.717   5
  -2  -6  -6 11437.8 1160.84   5
  -2  -6  -5 9243.30 1101.60   5
  -2  -6  -4 29699.5 1667.93   5
  -2  -6  -3 3930.49 902.055   5
  -2  -6  -2 38379.9 1782.76   5
  -2  -6  -1 366.071 556.530   5
  -2  -6   0 26097.1 1437.28   5
  -2  -6   1 6756.30 891.362   5
  -2  -6   2 24861.9 1372.44   5
  -2  -6   3 27484.6 1420.16   5
  -2  -6   4 22319.4 1272.22   5
  -2  -6   5 23972.7 1315.94   5
  -2  -6   6 10894.3 911.819   5
  -2  -6   7 5702.12 705.199   5
  -2  -6   8 5733.93 893.710   4
  -2  -6   8 4542.40 648.520   5
  -2  -6   9 13109.1 954.533   5
  -2  -6   9 13063.2 1183.87   4
  -2  -6  10 1590.33 526.937   5
  -2  -6  10 1470.11 696.118   4
  -2  -6  11 21182.0 1480.22   4
  -2  -6  12 2286.56 816.216   4
  -2  -6  13 23055.2 1597.57   4
  -2  -6  14 4411.67 917.048   4
  -2  -6  15 6463.78 1022.12   4
  -2  -6  16 1977.71 831.023   4
  -2  -6  17 655.659 768.409   4
  -2  -6  18 5382.07 1111.51   4
  -2  -6  19 2435.30 1007.47   4
  -2  -6  20 2838.53 1083.20   4
  -2  -5 -15 3878.63 1242.56   2
  -2  -5 -14 12388.9 1594.12   2
  -2  -5 -13 4491.07 1200.63   2
  -2  -5 -13-522.977 723.934   5
  -2  -5 -12 6145.24 990.167   5
  -2  -5 -12 11687.5 1454.89   2
  -2  -5 -11-70.9912 658.013   5
  -2  -5 -10 4834.79 845.873   5
  -2  -5  -9-72.2924 588.746   5
  -2  -5  -8 4161.66 792.900   5
  -2  -5  -7 3768.45 736.584   5
  -2  -5  -6 10990.8 1046.75   5
  -2  -5  -5 22671.3 1369.06   5
  -2  -5  -4 12536.0 1086.15   5
  -2  -5  -3 47185.5 1850.07   5
  -2  -5  -2 1274.37 600.815   5
  -2  -5  -1 32393.7 1471.41   5
  -2  -5   0 1124.58 525.134   5
  -2  -5   1 33869.4 1444.51   5
  -2  -5   2 12539.8 975.879   5
  -2  -5   3 70809.8 1978.75   5
  -2  -5   4 18231.2 1125.57   5
  -2  -5   5 22224.9 1116.08   5
  -2  -5   6 15761.7 938.813   5
  -2  -5   7 10020.5 737.758   5
  -2  -5   7 11909.1 1025.82   4
  -2  -5   8 6567.94 872.636   4
  -2  -5   8 5920.34 616.817   5
  -2  -5   9 134.675 524.867   4
  -2  -5   9 432.715 426.041   5
  -2  -5  10 20056.2 1347.62   4
  -2  -5  11 2010.48 691.450   4
  -2  -5  12 20048.1 1438.74   4
  -2  -5  13 2776.40 755.427   4
  -2  -5  14 17955.2 1452.68   4
  -2  -5  15 5963.97 1015.51   4
  -2  -5  16 6269.58 1034.02   4
  -2  -5  17 5081.75 1043.25   4
  -2  -5  18 4174.91 1032.56   4
  -2  -5  19 3702.62 1044.62   4
  -2  -5  20 3380.26 1057.19   4
  -2  -4 -16 2494.77 1132.47   2
  -2  -4 -15 4884.35 1225.85   2
  -2  -4 -14 528.545 638.843   5
  -2  -4 -14 2316.65 1044.28   2
  -2  -4 -13 5951.80 958.933   5
  -2  -4 -13 7279.30 1231.30   2
  -2  -4 -12 1151.23 911.583   2
  -2  -4 -12-332.358 603.767   5
  -2  -4 -11 7642.68 942.711   5
  -2  -4 -11 8466.13 1230.32   2
  -2  -4 -10 1549.44 627.458   5
  -2  -4 -10 2152.08 879.203   2
  -2  -4  -9 13894.0 1114.97   5
  -2  -4  -9 15280.9 1387.36   2
  -2  -4  -8 2456.87 623.236   5
  -2  -4  -8 3784.69 892.546   2
  -2  -4  -7 12914.8 1044.66   5
  -2  -4  -6 11057.5 968.486   5
  -2  -4  -5 18419.6 1164.59   5
  -2  -4  -4 31420.4 1433.46   5
  -2  -4  -3 10236.6 866.814   5
  -2  -4  -2 25818.6 1244.01   5
  -2  -4  -1 3099.67 565.508   5
  -2  -4   0 44915.5 1515.84   5
  -2  -4   1 11175.6 891.082   5
  -2  -4   2 58260.2 1621.37   5
  -2  -4   3 24529.3 1105.29   5
  -2  -4   4 57883.7 1553.42   5
  -2  -4   5 31396.3 1165.21   5
  -2  -4   6 13420.3 1005.77   4
  -2  -4   6 12077.7 722.352   5
  -2  -4   7 36075.8 1580.21   4
  -2  -4   7 31263.6 1070.24   5
  -2  -4   8 4096.54 687.139   4
  -2  -4   8 4466.90 487.321   5
  -2  -4   9 31186.9 1534.96   4
  -2  -4  10 10357.3 1012.62   4
  -2  -4  11 22960.2 1406.25   4
  -2  -4  12 2202.87 685.819   4
  -2  -4  13 18967.0 1377.85   4
  -2  -4  14-150.762 622.886   4
  -2  -4  15 12701.0 1281.36   4
  -2  -4  16 842.899 701.706   4
  -2  -4  17 6249.86 1101.01   4
  -2  -4  18 104.504 739.489   4
  -2  -4  19 2836.77 970.953   4
  -2  -3 -18-427.356 886.267   3
  -2  -3 -17 2503.40 1140.07   2
  -2  -3 -16 363.919 900.597   2
  -2  -3 -15 3664.76 1098.82   2
  -2  -3 -14 3320.83 1031.51   2
  -2  -3 -14 4269.82 795.825   5
  -2  -3 -13 2185.98 904.722   2
  -2  -3 -13 1906.76 642.658   5
  -2  -3 -12 12402.7 1363.04   2
  -2  -3 -12 12461.8 1065.66   5
  -2  -3 -11 262.190 512.665   5
  -2  -3 -11 478.347 727.655   2
  -2  -3 -10 22113.1 1583.39   2
  -2  -3 -10 22315.9 1311.09   5
  -2  -3  -9 3434.11 854.753   2
  -2  -3  -9 2866.01 614.764   5
  -2  -3  -9 3072.40 460.866   7
  -2  -3  -8 27131.7 1556.85   2
  -2  -3  -8 28221.1 1377.07   5
  -2  -3  -8 26628.9 1087.74   7
  -2  -3  -7 5743.89 888.660   2
  -2  -3  -7 5427.04 714.953   5
  -2  -3  -6 20322.4 1126.13   5
  -2  -3  -6 21985.8 1312.86   2
  -2  -3  -5 11733.2 877.206   5
  -2  -3  -4 32981.4 1324.52   5
  -2  -3  -3 26816.1 1168.90   5
  -2  -3  -2 12364.4 802.707   5
  -2  -3  -1 58442.4 1562.85   5
  -2  -3   0 24810.2 1036.21   5
  -2  -3   1 66783.6 1581.87   5
  -2  -3   2 43585.7 1436.59   6
  -2  -3   2 46245.1 1287.98   5
  -2  -3   3 44533.5 1433.48   6
  -2  -3   3 46255.9 1242.16   5
  -2  -3   4 12791.2 685.152   5
  -2  -3   4 11934.6 800.352   6
  -2  -3   5 51986.6 1215.65   5
  -2  -3   6 35223.4 979.916   5
  -2  -3   6 35174.5 1473.94   4
  -2  -3   7 3831.17 360.662   5
  -2  -3   7 3843.08 607.411   4
  -2  -3   8 21436.2 1200.74   4
  -2  -3   8 18171.4 623.613   5
  -2  -3   9 13637.5 1022.29   4
  -2  -3  10 24298.2 1378.15   4
  -2  -3  11 3223.02 654.242   4
  -2  -3  12 5844.77 829.034   4
  -2  -3  13 1681.39 623.216   4
  -2  -3  14 6877.56 978.000   4
  -2  -3  15 279.734 652.119   4
  -2  -3  16 16783.1 1506.73   4
  -2  -3  17 1558.29 821.186   4
  -2  -3  18 5706.26 1097.95   4
  -2  -2 -18 3044.98 1142.27   2
  -2  -2 -18 2611.57 992.566   1
  -2  -2 -17 236.638 935.013   2
  -2  -2 -16 5989.00 1209.05   2
  -2  -2 -15 788.496 833.302   2
  -2  -2 -14 3282.70 944.841   2
  -2  -2 -14 4098.72 724.082   5
  -2  -2 -13 9183.85 902.421   5
  -2  -2 -13 8864.87 1170.88   2
  -2  -2 -12 2142.72 801.510   2
  -2  -2 -12 2874.24 633.662   5
  -2  -2 -11 22746.1 1592.34   2
  -2  -2 -11 24399.4 1283.65   5
  -2  -2 -10 460.310 445.813   5
  -2  -2 -10-457.705 679.501   2
  -2  -2 -10 263.415 277.965   7
  -2  -2  -9 34678.4 1759.97   2
  -2  -2  -9 33686.6 1396.55   5
  -2  -2  -9 33185.1 1049.31   7
  -2  -2  -8 883.755 325.396   7
  -2  -2  -8 742.092 417.525   5
  -2  -2  -8 757.301 597.563   2
  -2  -2  -7 28685.6 1001.66   7
  -2  -2  -7 27558.4 1187.48   5
  -2  -2  -7 29247.8 1447.28   2
  -2  -2  -6 5887.46 761.353   2
  -2  -2  -6 4927.35 573.065   5
  -2  -2  -6 5090.66 484.371   7
  -2  -2  -5 12525.8 926.236   2
  -2  -2  -5 10266.6 734.151   5
  -2  -2  -5 10377.0 625.198   7
  -2  -2  -4 9981.06 786.925   2
  -2  -2  -4 8877.34 581.057   7
  -2  -2  -4 8297.57 656.899   5
  -2  -2  -3 37603.5 1236.38   5
  -2  -2  -2 29064.6 1059.50   5
  -2  -2  -1 1467.40 369.691   5
  -2  -2   0 185328. 2356.44   5
  -2  -2   1 199364. 2308.72   5
  -2  -2   1 198384. 2673.04   6
  -2  -2   2 69589.2 1328.29   5
  -2  -2   2 30927.3 1165.00   6
  -2  -2   3 1548.47 334.053   5
  -2  -2   4 80082.8 1279.66   5
  -2  -2   5 776.710 380.425   1
  -2  -2   5 793.972 435.664   4
  -2  -2   5 850.917 238.580   5
  -2  -2   5 779.692 376.026   3
  -2  -2   6 18388.2 544.488   5
  -2  -2   6 19579.6 996.637   1
  -2  -2   6 18492.8 940.436   3
  -2  -2   6 17348.6 973.080   4
  -2  -2   7 11873.3 366.953   5
  -2  -2   7 14519.5 868.277   3
  -2  -2   7 13807.7 933.220   4
  -2  -2   8 9215.13 794.474   4
  -2  -2   9 9764.35 908.771   4
  -2  -2  10 8171.96 864.238   4
  -2  -2  11 3280.16 325.921   7
  -2  -2  11 3418.49 658.870   4
  -2  -2  12 2506.50 647.133   4
  -2  -2  12 2218.31 275.558   7
  -2  -2  13 3892.24 305.494   7
  -2  -2  13 5278.89 838.323   4
  -2  -2  14 3667.04 811.261   4
  -2  -2  15 19691.4 1509.16   4
  -2  -2  16 1037.05 737.556   4
  -2  -1 -19 4426.11 1142.29   1
  -2  -1 -18-982.361 1009.20   2
  -2  -1 -18 676.825 819.358   1
  -2  -1 -17 1960.45 908.803   2
  -2  -1 -17 3386.88 859.741   3
  -2  -1 -16-112.007 899.300   2
  -2  -1 -15 6632.96 1052.36   2
  -2  -1 -14 1566.48 713.050   2
  -2  -1 -14 3417.80 627.986   5
  -2  -1 -13 1777.33 724.754   2
  -2  -1 -13 2207.54 543.047   5
  -2  -1 -12 18711.7 1343.43   2
  -2  -1 -12 20251.3 1103.74   5
  -2  -1 -11 1687.06 647.312   2
  -2  -1 -11 2247.30 504.513   5
  -2  -1 -10 35278.9 1645.28   2
  -2  -1 -10 34954.0 1341.06   5
  -2  -1 -10 34041.6 923.915   7
  -2  -1  -9 1408.36 440.174   5
  -2  -1  -9 458.747 566.679   2
  -2  -1  -9 1408.56 289.721   7
  -2  -1  -8 40158.8 1579.51   2
  -2  -1  -8 42318.8 1412.33   5
  -2  -1  -8 37400.0 1004.42   7
  -2  -1  -7 9.86302 461.041   2
  -2  -1  -7 269.395 264.479   7
  -2  -1  -7 443.837 387.723   5
  -2  -1  -6 13404.4 802.841   5
  -2  -1  -6 12515.9 627.297   7
  -2  -1  -6 12157.7 838.356   2
  -2  -1  -5 636.611 359.460   5
  -2  -1  -5 710.632 288.766   7
  -2  -1  -5-0.17606 407.176   2
  -2  -1  -4 24902.1 1014.38   2
  -2  -1  -4 23908.4 822.347   7
  -2  -1  -4 25052.1 1005.87   5
  -2  -1  -3 6110.90 543.261   2
  -2  -1  -3 6007.94 529.571   5
  -2  -1  -3 5657.37 445.701   7
  -2  -1  -2 63366.6 1253.52   7
  -2  -1  -2 64664.8 1416.92   5
  -2  -1  -1 124562. 1858.96   5
  -2  -1  -1 125376. 1706.50   7
  -2  -1   0 3021.12 461.069   6
  -2  -1   0 6998.02 541.104   7
  -2  -1   1 30965.3 983.361   6
  -2  -1   1 31677.6 834.032   7
  -2  -1   2 18129.4 671.508   7
  -2  -1   3 3842.79 463.364   3
  -2  -1   3 3435.37 348.362   7
  -2  -1   4 284.847 350.084   4
  -2  -1   4 113.718 188.644   5
  -2  -1   4 77.3124 214.188   7
  -2  -1   4 219.667 291.524   3
  -2  -1   4-83.2085 269.490   1
  -2  -1   5 41133.7 655.271   5
  -2  -1   5 48203.4 1355.13   3
  -2  -1   5 47877.6 1004.73   7
  -2  -1   5 48551.2 1201.15   1
  -2  -1   5 47650.4 1377.46   4
  -2  -1   6 7068.80 643.271   4
  -2  -1   6 6848.29 410.258   7
  -2  -1   6 6703.15 587.012   3
  -2  -1   6 7134.17 551.274   1
  -2  -1   7 30093.4 783.295   7
  -2  -1   7 30198.2 1084.32   1
  -2  -1   7 30141.7 1231.83   4
  -2  -1   8 15517.6 570.177   7
  -2  -1   8 14841.7 954.597   4
  -2  -1   9 20513.1 597.563   7
  -2  -1   9 20684.2 1152.62   4
  -2  -1  10 5725.91 314.840   7
  -2  -1  10 9903.32 905.735   4
  -2  -1  11 8807.93 301.979   7
  -2  -1  11 12482.9 1028.07   4
  -2  -1  12 8625.52 988.998   4
  -2  -1  13 6123.10 886.886   4
  -2  -1  14 20114.9 1482.48   4
  -2   0 -19-203.788 855.750   1
  -2   0 -19-1238.84 1076.23   2
  -2   0 -18 5210.11 1062.48   2
  -2   0 -18 9377.52 1370.46   1
  -2   0 -17-421.285 930.861   2
  -2   0 -17 970.581 750.427   1
  -2   0 -16 8854.26 1250.54   1
  -2   0 -16 7137.69 939.864   3
  -2   0 -15 150.996 539.922   3
  -2   0 -15 164.385 667.017   1
  -2   0 -14 6819.61 700.599   5
  -2   0 -13 3458.10 553.586   5
  -2   0 -12 4123.50 592.912   5
  -2   0 -11 10349.6 779.573   5
  -2   0 -11 9518.55 489.308   7
  -2   0 -10 6051.93 642.389   5
  -2   0 -10 4660.90 401.186   7
  -2   0  -9 22188.9 1041.28   5
  -2   0  -9 19127.5 703.005   7
  -2   0  -8 2018.77 483.058   5
  -2   0  -8 1498.39 319.717   7
  -2   0  -7 17576.2 691.323   7
  -2   0  -6 1400.08 300.471   7
  -2   0  -5 20023.0 713.911   7
  -2   0  -4 586.340 316.927   2
  -2   0  -4 855.111 270.600   7
  -2   0  -3 140227. 1772.36   7
  -2   0  -3 144360. 1764.65   2
  -2   0  -2 90742.7 1174.27   2
  -2   0  -2 94828.5 1402.60   6
  -2   0  -2 92083.8 1410.90   7
  -2   0  -1 29260.3 804.172   7
  -2   0  -1 28947.4 826.549   6
  -2   0   0 81826.1 1299.37   7
  -2   0   1 22982.3 791.516   3
  -2   0   1 29854.5 811.478   7
  -2   0   2 1425.75 364.732   3
  -2   0   2 2110.71 336.427   7
  -2   0   2 2877.20 416.168   4
  -2   0   3 78199.9 1393.42   4
  -2   0   3 78647.9 1039.27   1
  -2   0   3 77625.5 1201.45   7
  -2   0   3 82800.1 1545.34   3
  -2   0   4 35258.8 788.395   1
  -2   0   4 34605.8 807.478   7
  -2   0   4 37174.9 1135.27   3
  -2   0   4 36683.3 1074.94   4
  -2   0   5 20124.1 612.196   7
  -2   0   5 21209.0 918.940   3
  -2   0   5 20510.7 887.067   4
  -2   0   6 51593.6 751.021   5
  -2   0   6 53841.2 1480.13   4
  -2   0   6 54282.8 909.619   7
  -2   0   7 454.028 370.125   4
  -2   0   7 250.960 119.977   5
  -2   0   7 449.649 175.311   7
  -2   0   8 28200.7 503.660   5
  -2   0   8 29353.0 598.636   7
  -2   0   9 6517.97 242.395   7
  -2   0   9 10365.8 871.954   4
  -2   0  10 28129.7 1436.79   4
  -2   0  11 5833.49 781.674   4
  -2   0  12 8337.61 951.683   4
  -2   1 -19 11441.4 1530.40   1
  -2   1 -18 465.767 809.917   1
  -2   1 -17 3083.66 912.463   1
  -2   1 -16 1025.86 718.488   1
  -2   1 -15 5610.01 999.266   1
  -2   1 -15 6137.71 755.906   3
  -2   1 -14 211.282 400.753   5
  -2   1 -14 670.957 466.223   3
  -2   1 -14-258.130 681.042   1
  -2   1 -13 12824.1 1232.66   1
  -2   1 -13 13302.5 882.674   5
  -2   1 -13 12204.8 888.556   3
  -2   1 -12 2731.23 694.274   1
  -2   1 -12 3367.21 555.277   5
  -2   1 -11 13053.6 640.129   7
  -2   1 -11 13826.9 1122.65   1
  -2   1 -10 11980.7 640.960   7
  -2   1  -9 17814.8 746.664   7
  -2   1  -8 26304.1 890.815   7
  -2   1  -7 5916.65 478.210   7
  -2   1  -6 62626.3 1286.65   7
  -2   1  -6 63546.5 1552.69   4
  -2   1  -5 1561.07 306.076   7
  -2   1  -4 28407.4 863.426   7
  -2   1  -3 7859.53 481.597   7
  -2   1  -2 98910.8 1503.76   7
  -2   1  -1 1892.29 373.445   7
  -2   1  -1 658.826 249.730   3
  -2   1   0 10093.5 501.150   3
  -2   1   0 15043.2 620.993   7
  -2   1   1 3141.32 376.183   7
  -2   1   1 3114.90 385.929   3
  -2   1   2 65467.9 1130.10   7
  -2   1   2 65270.7 1338.29   3
  -2   1   2 60753.5 1016.21   4
  -2   1   3 10456.0 482.372   7
  -2   1   3 11341.1 632.659   3
  -2   1   3 10386.1 521.784   4
  -2   1   4 22997.0 658.565   7
  -2   1   4 23742.9 735.205   5
  -2   1   4 23391.5 843.549   4
  -2   1   5 38102.4 825.560   7
  -2   1   5 41702.4 940.125   5
  -2   1   5 42571.5 1228.15   4
  -2   1   6 9160.88 684.886   4
  -2   1   6 9339.79 491.121   5
  -2   1   6 8335.13 400.712   7
  -2   1   7 43294.3 985.003   5
  -2   1   7 42761.8 1450.78   4
  -2   1   7 37499.5 761.829   7
  -2   1   8 8052.45 506.313   5
  -2   1   8 8944.48 821.107   4
  -2   1   9 17058.2 622.943   5
  -2   1  10 13564.1 598.635   5
  -2   2 -19 746.655 864.021   1
  -2   2 -18 6640.27 1239.81   1
  -2   2 -17-225.366 784.812   1
  -2   2 -16 2967.72 916.934   1
  -2   2 -15 52.6062 631.179   1
  -2   2 -14 20906.4 1105.82   5
  -2   2 -14 20633.4 1040.57   3
  -2   2 -14 18811.9 1531.30   1
  -2   2 -13 106.828 586.765   1
  -2   2 -13 487.293 377.010   3
  -2   2 -12 19226.7 898.417   3
  -2   2 -12 19762.2 1406.52   1
  -2   2 -11 1528.46 544.969   1
  -2   2 -11 1086.22 317.062   3
  -2   2 -10 19700.5 735.101   3
  -2   2 -10 20639.3 1303.31   1
  -2   2  -9 15467.4 1073.21   1
  -2   2  -9 15452.4 593.412   3
  -2   2  -9 15820.1 773.448   7
  -2   2  -8 13252.4 716.296   7
  -2   2  -8 10742.1 445.911   3
  -2   2  -8 11903.4 923.680   1
  -2   2  -7 34497.7 1103.24   7
  -2   2  -7 34280.4 1385.71   1
  -2   2  -6 2351.26 398.215   7
  -2   2  -6 2418.05 403.374   4
  -2   2  -6 2259.48 454.396   1
  -2   2  -5 62195.2 1418.67   7
  -2   2  -5 61547.1 1289.00   4
  -2   2  -5 60405.3 1584.55   1
  -2   2  -4 5773.86 489.487   7
  -2   2  -4 4925.00 474.723   1
  -2   2  -4 5000.85 368.041   4
  -2   2  -3 27987.6 636.419   4
  -2   2  -3 30004.6 958.743   1
  -2   2  -3 30021.8 977.684   7
  -2   2  -2 430.160 120.776   4
  -2   2  -2 1506.94 378.157   7
  -2   2  -2 1617.90 322.184   1
  -2   2  -1 68103.1 1158.35   1
  -2   2  -1 72675.2 1393.25   7
  -2   2   0 32019.0 976.251   7
  -2   2   1 16175.2 679.438   7
  -2   2   2 31706.4 929.918   7
  -2   2   2 32439.3 1023.97   5
  -2   2   3 26645.8 955.688   5
  -2   2   3 25320.8 823.128   7
  -2   2   4 48568.0 1112.19   7
  -2   2   4 47576.3 1222.24   5
  -2   2   5 15254.5 750.203   5
  -2   2   5 15141.4 631.330   7
  -2   2   6 44661.4 1247.56   5
  -2   2   7 1938.67 375.205   5
  -2   2   8 45908.1 1297.63   5
  -2   2   9 183.318 288.536   5
  -2   2  10 11886.4 701.873   5
  -2   3 -19 3891.94 1082.99   1
  -2   3 -18 3124.96 987.681   1
  -2   3 -17 9785.05 1335.64   1
  -2   3 -16 2625.35 885.276   1
  -2   3 -15 14875.9 1440.97   1
  -2   3 -14 873.324 759.153   1
  -2   3 -13 27879.9 948.320   3
  -2   3 -13 31362.7 1838.61   1
  -2   3 -12 1142.64 288.400   3
  -2   3 -12 1493.11 659.695   1
  -2   3 -11 12518.5 1123.69   1
  -2   3 -10 2514.19 627.076   1
  -2   3  -9 12035.4 998.022   1
  -2   3  -8 9894.50 889.733   1
  -2   3  -7 2812.83 545.731   1
  -2   3  -7 3107.94 484.226   4
  -2   3  -6 37491.1 1387.53   1
  -2   3  -6 40557.5 1125.15   4
  -2   3  -5 3509.13 514.025   1
  -2   3  -5 2923.61 344.787   4
  -2   3  -4 106191. 2077.45   1
  -2   3  -4 105664. 1380.50   4
  -2   3  -3 2128.17 444.583   7
  -2   3  -3 1264.73 395.015   1
  -2   3  -2 45020.7 1168.88   1
  -2   3  -2 51878.7 1384.74   7
  -2   3  -1 13059.2 791.247   7
  -2   3  -1 9126.73 789.233   5
  -2   3   0 89032.9 1472.48   2
  -2   3   0 89747.0 1755.93   7
  -2   3   0 89139.3 1900.99   5
  -2   3   1 23159.2 926.120   7
  -2   3   1 24658.3 1056.87   5
  -2   3   2 35239.0 1220.64   5
  -2   4 -19 4088.37 1197.88   1
  -2   4 -18 3088.65 1040.13   1
  -2   4 -17 3045.94 980.950   1
  -2   4 -16 5274.05 1056.63   1
  -2   4 -15-1749.26 961.613   1
  -2   4 -14 12883.2 1360.24   1
  -2   4 -13-1432.73 838.580   1
  -2   4 -12 13743.9 1283.99   1
  -2   4 -11-809.025 646.930   1
  -2   4 -10 6607.29 859.936   1
  -2   4  -9 11417.4 1028.94   1
  -2   4  -8 24566.2 1383.75   1
  -2   4  -7 8209.10 829.203   1
  -2   4  -7 8518.58 657.147   4
  -2   4  -6 7982.88 830.199   1
  -2   4  -6 8630.17 662.354   4
  -2   4  -5 76383.0 2036.97   1
  -2   4  -4 22505.1 1087.43   1
  -2   4   0 7530.32 649.202   2
  -2   4   1 20627.6 945.976   2
  -2   5 -19 540.755 1036.18   1
  -2   5 -18 7014.68 1327.94   1
  -2   5 -17 4195.63 1127.38   1
  -2   5 -16 1365.13 890.101   1
  -2   5 -15 9186.65 1326.72   1
  -2   5 -14 50.4178 822.519   1
  -2   5 -13 13156.6 1394.40   1
  -2   5 -12-276.955 712.213   1
  -2   5 -11 6180.90 955.260   1
  -2   5 -10 1007.62 644.714   1
  -2   5  -9 15978.9 1261.43   1
  -2   5  -8 5538.08 820.633   1
  -2   5  -7 15605.9 1135.73   1
  -2   5  -6 9684.76 896.077   1
  -2   6 -18 2250.08 1113.11   1
  -2   6 -17 3370.28 1141.79   1
  -2   6 -16 6345.42 1298.49   1
  -2   6 -15 786.696 838.820   1
  -2   6 -14 8781.69 1330.83   1
  -2   6 -13 558.732 769.422   1
  -2   6 -12 14963.6 1439.61   1
  -2   6 -11 1415.43 754.766   1
  -2   6 -10 14467.1 1297.55   1
  -2   6  -9 1251.65 698.360   1
  -2   6  -8 33726.0 1727.97   1
  -2   7 -18 12180.2 1712.93   1
  -2   7 -17 3330.56 1124.69   1
  -2   7 -16 14632.5 1668.94   1
  -2   7 -15 3696.23 1140.46   1
  -2   7 -14 15477.8 1618.85   1
  -2   7 -13 6691.50 1211.84   1
  -2   7 -12 7945.66 1246.30   1
  -2   7 -11 8562.62 1190.08   1
  -2   8 -17 9217.86 1623.35   1
  -1 -12   3 6918.39 1271.49   7
  -1 -12   4 4532.39 1294.20   5
  -1 -12   4 3211.19 1084.61   7
  -1 -12   5 4908.70 1278.82   5
  -1 -12   5 3961.77 1092.75   7
  -1 -12   6 7334.17 1444.45   5
  -1 -12   7 6558.30 1370.39   5
  -1 -11  -5 527.487 782.820   7
  -1 -11  -4 1282.52 830.860   7
  -1 -11  -3 529.138 985.451   5
  -1 -11  -3-484.043 855.324   7
  -1 -11  -2 2786.89 1113.21   5
  -1 -11  -1 705.591 997.891   5
  -1 -11   0 9343.32 1449.01   5
  -1 -11   1 239.626 953.552   5
  -1 -11   2 14472.0 1681.94   5
  -1 -11   3 3526.53 1208.65   5
  -1 -11   4 10222.9 1465.88   5
  -1 -11   5 9902.61 1421.78   5
  -1 -11   6 11683.7 1530.79   5
  -1 -11   7 11054.3 1498.71   5
  -1 -11   8 5825.67 1261.46   5
  -1 -11   9 4585.37 1163.74   7
  -1 -11  10 3140.95 1100.43   7
  -1 -11  11 6021.30 1206.35   7
  -1 -11  12 2060.03 982.872   7
  -1 -11  13 3331.26 1007.99   7
  -1 -11  14-488.068 932.047   7
  -1 -11  15 1595.32 945.603   7
  -1 -11  16 1046.70 947.267   7
  -1 -10  -7 1370.64 989.447   5
  -1 -10  -6 4621.34 1175.79   5
  -1 -10  -6 4487.14 1022.22   7
  -1 -10  -5 4118.01 1144.63   5
  -1 -10  -4 3426.93 1072.16   5
  -1 -10  -3 6342.74 1219.79   5
  -1 -10  -2 2623.15 989.850   5
  -1 -10  -1 10864.5 1427.83   5
  -1 -10   0 1506.59 925.010   5
  -1 -10   1 13856.6 1542.63   5
  -1 -10   2 1959.07 1046.42   5
  -1 -10   3 12956.1 1492.62   5
  -1 -10   4 7106.27 1231.59   5
  -1 -10   5 6609.22 1169.82   5
  -1 -10   6 5090.35 1055.21   5
  -1 -10   7 5407.14 1096.19   5
  -1 -10   8 7397.97 1174.11   5
  -1 -10   8 7641.77 1183.54   4
  -1 -10   9 4616.34 1016.76   4
  -1 -10  10 6602.97 1088.62   4
  -1 -10  11 48.0990 752.184   4
  -1 -10  11 1561.94 922.421   7
  -1 -10  12 8213.73 1163.99   4
  -1 -10  12 6933.90 1137.85   7
  -1 -10  13-434.584 821.214   7
  -1 -10  13 2437.81 899.443   4
  -1 -10  14 2545.68 892.424   7
  -1 -10  14 3252.78 917.450   4
  -1 -10  15 39.6767 771.194   4
  -1 -10  15-252.208 851.515   7
  -1 -10  16 3628.78 1060.59   7
  -1 -10  16 4352.21 1029.20   4
  -1  -9 -10 175.486 876.771   5
  -1  -9  -9 4344.55 1153.17   5
  -1  -9  -8-535.232 805.564   5
  -1  -9  -7 6695.84 1225.11   5
  -1  -9  -6 1359.14 856.443   5
  -1  -9  -5 3421.29 995.525   5
  -1  -9  -4 7649.54 1211.58   5
  -1  -9  -3 890.295 767.373   5
  -1  -9  -2 8307.32 1192.79   5
  -1  -9  -1 1290.98 778.283   5
  -1  -9   0 14908.2 1465.37   5
  -1  -9   1 1350.01 848.893   5
  -1  -9   2 18214.9 1543.19   5
  -1  -9   3 5226.54 1084.11   5
  -1  -9   4 24085.4 1761.56   5
  -1  -9   5 8875.01 1221.31   5
  -1  -9   6 17458.1 1486.65   5
  -1  -9   7 5055.45 997.349   5
  -1  -9   8 8460.32 1121.97   5
  -1  -9   8 10992.1 1232.80   4
  -1  -9   9 8094.48 1105.14   4
  -1  -9  10 5546.50 974.005   4
  -1  -9  11 6198.14 1034.17   4
  -1  -9  12 319.009 702.742   4
  -1  -9  12 1513.20 806.785   7
  -1  -9  13 7169.44 1039.92   4
  -1  -9  13 5081.01 974.186   7
  -1  -9  14 598.084 709.708   4
  -1  -9  14-809.930 783.293   7
  -1  -9  15 3117.27 914.045   7
  -1  -9  15 4543.58 983.043   4
  -1  -9  16 264.599 746.406   4
  -1  -9  16-613.978 778.768   7
  -1  -9  17 3305.63 975.838   4
  -1  -9  18-779.184 892.127   4
  -1  -9  19 3977.26 1117.98   4
  -1  -8 -12 2588.31 992.797   5
  -1  -8 -11 247.013 787.310   5
  -1  -8 -10 4438.21 1077.79   5
  -1  -8  -9 27.9318 734.612   5
  -1  -8  -8 9284.11 1315.97   5
  -1  -8  -7 1314.89 795.866   5
  -1  -8  -6 14063.2 1449.24   5
  -1  -8  -5 2487.54 830.184   5
  -1  -8  -4 7440.98 1098.65   5
  -1  -8  -3 8801.96 1142.10   5
  -1  -8  -2 8701.14 1108.75   5
  -1  -8  -1 7219.99 1021.88   5
  -1  -8   0 4602.23 887.507   5
  -1  -8   1 8191.49 1043.77   5
  -1  -8   2 3655.74 863.212   5
  -1  -8   3 19469.1 1450.29   5
  -1  -8   4 11215.3 1208.30   5
  -1  -8   5 28006.3 1695.21   5
  -1  -8   6 7460.14 1083.06   5
  -1  -8   7 8880.54 1009.96   5
  -1  -8   8 2727.85 832.186   4
  -1  -8   8 15.4569 621.093   5
  -1  -8   9 14433.3 1268.19   4
  -1  -8  10 5596.97 914.189   4
  -1  -8  11 8072.24 1052.46   4
  -1  -8  12 7797.34 1056.61   4
  -1  -8  13 1582.87 758.420   4
  -1  -8  13 831.840 712.896   7
  -1  -8  14 6062.64 987.515   4
  -1  -8  14 4179.83 874.133   7
  -1  -8  15 343.483 659.954   7
  -1  -8  15 1332.20 763.799   4
  -1  -8  16 2037.46 832.050   4
  -1  -8  16 1755.05 747.410   7
  -1  -8  17-700.174 795.350   4
  -1  -8  18 4373.77 1069.81   4
  -1  -8  19 415.331 851.685   4
  -1  -7 -13 3516.35 955.388   5
  -1  -7 -12 1964.57 899.737   5
  -1  -7 -11 5960.39 1089.77   5
  -1  -7 -10 1063.12 763.219   5
  -1  -7  -9 4628.34 989.272   5
  -1  -7  -8 345.098 685.005   5
  -1  -7  -7 17069.8 1452.22   5
  -1  -7  -6 429.632 651.078   5
  -1  -7  -5 15533.2 1345.86   5
  -1  -7  -4 2573.08 776.175   5
  -1  -7  -3 18785.7 1391.22   5
  -1  -7  -2 3537.40 773.715   5
  -1  -7  -1 9929.25 1048.02   5
  -1  -7   0 3941.02 801.594   5
  -1  -7   1 7619.49 941.060   5
  -1  -7   2 11792.5 1102.16   5
  -1  -7   3 7794.34 936.444   5
  -1  -7   4 33370.9 1657.06   5
  -1  -7   5 5594.29 907.157   5
  -1  -7   6 15377.0 1171.68   5
  -1  -7   7 2176.40 738.887   4
  -1  -7   7-485.057 596.376   5
  -1  -7   8 16318.9 1232.96   4
  -1  -7   8 13693.2 1080.14   5
  -1  -7   9 2352.91 745.573   4
  -1  -7  10 19344.5 1340.84   4
  -1  -7  11 13022.9 1212.82   4
  -1  -7  12 2633.83 726.551   4
  -1  -7  13 12447.8 1158.51   7
  -1  -7  13 13157.8 1231.17   4
  -1  -7  14 4472.95 895.805   4
  -1  -7  14 4019.63 807.457   7
  -1  -7  15 3457.31 852.976   4
  -1  -7  15 2728.33 745.880   7
  -1  -7  16 1021.19 759.680   4
  -1  -7  17 5581.32 1073.56   4
  -1  -7  18-222.942 756.616   4
  -1  -7  19 5954.37 1196.25   4
  -1  -7  20-234.876 846.036   4
  -1  -6 -13 1676.29 795.468   5
  -1  -6 -12 6032.62 1050.49   5
  -1  -6 -11 2231.46 806.278   5
  -1  -6 -10 1017.68 718.319   5
  -1  -6  -9 2058.05 745.094   5
  -1  -6  -8 8294.63 1041.01   5
  -1  -6  -7 245.881 576.777   5
  -1  -6  -6 24844.7 1567.63   5
  -1  -6  -5 921.590 644.569   5
  -1  -6  -4 17880.7 1292.79   5
  -1  -6  -3 1232.01 597.275   5
  -1  -6  -2 25947.5 1455.72   5
  -1  -6  -1 2030.94 589.710   5
  -1  -6   0 9009.41 898.086   5
  -1  -6   1 20432.9 1270.69   5
  -1  -6   2 16815.1 1202.96   5
  -1  -6   3 46025.5 1742.85   5
  -1  -6   4 34237.9 1539.20   5
  -1  -6   5 52239.7 1841.61   5
  -1  -6   6 7907.53 907.502   5
  -1  -6   7 28456.9 1342.07   5
  -1  -6   7 31557.6 1519.76   4
  -1  -6   8 1437.93 615.776   4
  -1  -6   8 925.722 471.398   5
  -1  -6   9 25216.6 1419.44   4
  -1  -6  10 628.516 576.134   4
  -1  -6  11 10369.8 1052.84   4
  -1  -6  12 6968.63 929.900   4
  -1  -6  13 6386.77 817.236   7
  -1  -6  13 6807.59 950.483   4
  -1  -6  14 6525.46 862.331   7
  -1  -6  14 5691.73 965.873   4
  -1  -6  15 2911.13 822.249   4
  -1  -6  15 3001.24 680.304   7
  -1  -6  16 3341.46 865.442   4
  -1  -6  17-537.753 779.920   4
  -1  -6  18 6600.59 1167.25   4
  -1  -6  19 664.618 829.119   4
  -1  -6  20 5615.89 1180.23   4
  -1  -5 -15 2628.21 1087.31   2
  -1  -5 -14 4335.01 1149.64   2
  -1  -5 -13 7277.39 1279.14   2
  -1  -5 -13 3839.77 846.834   5
  -1  -5 -12 5798.43 948.952   5
  -1  -5 -12 8203.36 1327.20   2
  -1  -5 -11 1742.04 706.781   5
  -1  -5 -11 4571.96 1069.00   2
  -1  -5 -10 6504.24 1150.83   2
  -1  -5 -10 4102.90 800.973   5
  -1  -5  -9 11541.8 1119.77   5
  -1  -5  -9 15792.3 1465.87   2
  -1  -5  -8 9693.91 1030.79   5
  -1  -5  -7 30146.4 1583.00   5
  -1  -5  -6 5208.38 829.725   5
  -1  -5  -5 29202.4 1503.21   5
  -1  -5  -4 10656.8 975.539   5
  -1  -5  -3 60354.1 2034.68   5
  -1  -5  -2 6598.21 754.261   5
  -1  -5  -1 35978.5 1518.51   5
  -1  -5   0 260.813 436.701   5
  -1  -5   1 7201.85 760.436   5
  -1  -5   2 17618.2 1072.13   5
  -1  -5   3 4745.56 647.182   5
  -1  -5   4 33148.2 1313.49   5
  -1  -5   5 7495.83 722.042   5
  -1  -5   6 23521.0 1140.79   6
  -1  -5   6 22334.8 1091.93   5
  -1  -5   6 24388.6 1246.28   4
  -1  -5   7 1872.94 562.093   4
  -1  -5   7 1446.55 419.590   5
  -1  -5   8 26385.9 1327.95   4
  -1  -5   9-421.722 549.344   4
  -1  -5   9 768.973 393.194   3
  -1  -5  10 24803.0 1103.59   3
  -1  -5  10 27304.9 1434.99   4
  -1  -5  11 6188.55 856.580   4
  -1  -5  12 18946.9 1313.60   4
  -1  -5  13 8815.84 857.576   7
  -1  -5  13 11412.4 1183.31   4
  -1  -5  14 12469.4 946.059   7
  -1  -5  14 13639.6 1272.64   4
  -1  -5  15 6939.97 1021.09   4
  -1  -5  15 6312.44 740.454   7
  -1  -5  16 2434.86 798.769   4
  -1  -5  17 3592.32 967.493   4
  -1  -5  18 751.347 750.602   4
  -1  -5  19 4585.66 1062.52   4
  -1  -4 -17 4428.48 1136.79   3
  -1  -4 -16 324.831 966.403   2
  -1  -4 -15 7430.71 1324.13   2
  -1  -4 -14 1830.38 984.087   2
  -1  -4 -13 13445.3 1179.86   5
  -1  -4 -13 15277.6 1598.41   2
  -1  -4 -12-127.182 560.243   5
  -1  -4 -12 694.144 870.331   2
  -1  -4 -11 14129.8 1161.96   5
  -1  -4 -11 15401.5 1471.07   2
  -1  -4 -10 1417.43 573.351   5
  -1  -4 -10 2232.77 870.624   2
  -1  -4  -9 10876.6 993.622   5
  -1  -4  -9 11497.0 1241.67   2
  -1  -4  -8 4617.12 917.010   2
  -1  -4  -8 2997.79 624.750   5
  -1  -4  -7 10042.7 894.731   5
  -1  -4  -7 10131.6 1057.81   2
  -1  -4  -6 8977.18 839.045   5
  -1  -4  -6 10651.9 1062.33   2
  -1  -4  -5 7326.45 763.285   5
  -1  -4  -4 16902.5 1042.98   5
  -1  -4  -3-303.798 438.859   5
  -1  -4  -2 53702.3 1676.20   5
  -1  -4  -1 21992.5 1086.75   5
  -1  -4   0 24542.0 1116.29   5
  -1  -4   1 74361.0 1820.88   5
  -1  -4   2 22522.1 1076.75   5
  -1  -4   3 86582.0 1875.50   5
  -1  -4   4 24614.3 1073.22   6
  -1  -4   4 29285.0 1122.81   5
  -1  -4   5 53931.6 1528.80   6
  -1  -4   5 52774.3 1409.21   5
  -1  -4   6 31391.7 1106.79   5
  -1  -4   6 31370.2 1336.20   4
  -1  -4   7 54608.6 1749.87   4
  -1  -4   7 55778.2 1405.93   5
  -1  -4   8 3485.23 591.105   4
  -1  -4   8 4506.78 519.994   3
  -1  -4   9 27457.0 1089.43   3
  -1  -4   9 27111.6 1342.78   4
  -1  -4  10 2546.80 600.161   4
  -1  -4  10 2414.73 422.750   3
  -1  -4  11 27420.3 1455.87   4
  -1  -4  12 375.279 491.449   4
  -1  -4  12 307.334 371.275   7
  -1  -4  13 12027.7 832.297   7
  -1  -4  13 12082.2 1154.19   4
  -1  -4  14 1838.60 716.001   4
  -1  -4  14 2006.61 460.455   7
  -1  -4  15 3597.20 844.065   4
  -1  -4  16 1977.11 780.797   4
  -1  -4  17 328.496 682.418   4
  -1  -3 -19 1506.90 981.412   3
  -1  -3 -18 2540.49 1028.86   3
  -1  -3 -17 130.245 798.661   3
  -1  -3 -17 2063.09 1062.25   2
  -1  -3 -16 3674.29 1068.01   2
  -1  -3 -15-28.9114 882.819   2
  -1  -3 -14 7204.08 1210.12   2
  -1  -3 -13-723.244 884.773   2
  -1  -3 -13-294.160 557.090   5
  -1  -3 -12 14426.4 1393.68   2
  -1  -3 -12 14378.7 1086.11   5
  -1  -3 -11 813.976 724.176   2
  -1  -3 -11 1356.00 521.731   5
  -1  -3 -10 12594.5 1240.50   2
  -1  -3 -10 12584.1 975.802   5
  -1  -3  -9 8661.51 1042.17   2
  -1  -3  -9 8704.43 800.784   5
  -1  -3  -9 8496.62 563.828   7
  -1  -3  -8 13426.3 1168.06   2
  -1  -3  -8 14132.7 968.701   5
  -1  -3  -7 18173.1 1231.91   2
  -1  -3  -7 17416.1 1026.10   5
  -1  -3  -6 15321.6 1105.74   2
  -1  -3  -6 13748.5 903.305   5
  -1  -3  -5 41967.2 1620.66   2
  -1  -3  -5 40309.5 1429.82   5
  -1  -3  -4 9767.66 795.559   5
  -1  -3  -4 11522.8 941.941   2
  -1  -3  -3 49925.4 1482.42   5
  -1  -3  -2 181.062 348.443   5
  -1  -3  -1 80058.8 1723.34   5
  -1  -3   0 17803.6 880.261   5
  -1  -3   1 105627. 1864.65   5
  -1  -3   2 15434.8 791.925   5
  -1  -3   3 16759.5 814.752   6
  -1  -3   3 17134.7 767.291   5
  -1  -3   4 7012.55 511.497   5
  -1  -3   4 6549.15 553.879   6
  -1  -3   4 6263.79 639.975   1
  -1  -3   5 64986.9 1298.06   5
  -1  -3   5 64279.4 1661.89   4
  -1  -3   6 29031.4 1202.54   4
  -1  -3   6 30134.6 887.596   5
  -1  -3   7 2027.20 460.759   4
  -1  -3   7 2906.03 419.029   3
  -1  -3   8 11959.0 699.036   3
  -1  -3   8 12775.7 891.551   4
  -1  -3   9 2218.11 551.582   4
  -1  -3   9 2240.84 432.074   3
  -1  -3  10 9791.20 692.990   3
  -1  -3  10 12076.9 968.693   4
  -1  -3  11 2069.80 583.804   4
  -1  -3  12 15234.9 1141.53   4
  -1  -3  12 15921.6 788.960   7
  -1  -3  13 1274.35 351.654   7
  -1  -3  13 1183.17 627.693   4
  -1  -3  14 8658.83 1042.42   4
  -1  -3  15 3338.71 814.868   4
  -1  -3  16 5240.12 952.079   4
  -1  -2 -19 1354.72 922.268   1
  -1  -2 -18 1468.58 859.890   3
  -1  -2 -18 325.974 956.588   2
  -1  -2 -18 1388.54 866.763   1
  -1  -2 -17 3950.34 949.251   3
  -1  -2 -17 3890.39 1056.07   2
  -1  -2 -17 5975.21 1139.24   1
  -1  -2 -16 1579.25 716.858   3
  -1  -2 -16 59.8608 956.339   2
  -1  -2 -15 7610.96 1187.83   2
  -1  -2 -14 32.8386 861.406   2
  -1  -2 -14 974.032 523.850   5
  -1  -2 -13 11814.5 1296.05   2
  -1  -2 -13 11255.0 918.401   5
  -1  -2 -12-532.138 793.625   2
  -1  -2 -12 556.025 417.924   5
  -1  -2 -11 30724.8 1755.85   2
  -1  -2 -11 31017.3 1338.88   5
  -1  -2 -10 6263.49 884.866   2
  -1  -2 -10 7652.84 741.228   5
  -1  -2 -10 5583.37 341.484   7
  -1  -2  -9 24670.7 1133.17   5
  -1  -2  -9 22607.2 1374.30   2
  -1  -2  -9 22230.9 709.557   7
  -1  -2  -8 6140.43 438.709   7
  -1  -2  -8 6113.82 795.121   2
  -1  -2  -8 7979.82 703.673   5
  -1  -2  -7 22671.9 754.201   7
  -1  -2  -7 22494.4 1023.64   5
  -1  -2  -7 22601.2 1230.96   2
  -1  -2  -6 10014.3 701.904   5
  -1  -2  -6 10002.7 844.387   2
  -1  -2  -5 20167.4 1078.04   2
  -1  -2  -5 19610.0 902.352   5
  -1  -2  -4 16734.7 949.592   2
  -1  -2  -4 13600.7 739.253   5
  -1  -2  -3 17591.4 880.534   2
  -1  -2  -3 17217.4 784.715   5
  -1  -2  -2 11883.7 636.306   5
  -1  -2  -1 382.842 291.189   5
  -1  -2   0 87183.7 1468.45   5
  -1  -2   1 9773.43 585.162   5
  -1  -2   2 63739.5 1268.47   6
  -1  -2   2 66817.9 1149.85   5
  -1  -2   3 5495.64 446.419   6
  -1  -2   3 5478.33 387.207   5
  -1  -2   3 6174.49 540.303   1
  -1  -2   4 6126.89 358.401   5
  -1  -2   4 6057.08 551.654   1
  -1  -2   4 6362.34 555.565   4
  -1  -2   5 36123.8 751.671   5
  -1  -2   5 34887.0 1172.60   1
  -1  -2   5 34002.6 982.969   3
  -1  -2   5 33260.3 1125.74   4
  -1  -2   6 15605.1 839.008   1
  -1  -2   6 14376.3 688.605   3
  -1  -2   6 15584.2 844.763   4
  -1  -2   7 36417.0 1096.72   3
  -1  -2   7 36948.6 1323.78   4
  -1  -2   8 5821.63 515.474   3
  -1  -2   8 6097.48 644.492   4
  -1  -2   9 26704.9 1273.92   4
  -1  -2  10 16979.4 1082.48   4
  -1  -2  11 20247.3 666.059   7
  -1  -2  11 22680.8 1300.76   4
  -1  -2  12 1270.71 559.030   4
  -1  -2  12 994.912 199.824   7
  -1  -2  13 6951.52 310.757   7
  -1  -2  13 11290.1 1084.03   4
  -1  -2  14 43.7188 574.072   4
  -1  -1 -19 5530.00 1203.89   1
  -1  -1 -19 2441.80 1021.05   2
  -1  -1 -18 586.554 958.630   2
  -1  -1 -18 3211.55 1049.05   1
  -1  -1 -17 2748.95 935.029   2
  -1  -1 -17 4517.23 929.317   3
  -1  -1 -17 4504.55 1051.48   1
  -1  -1 -16 4979.90 1059.14   2
  -1  -1 -16 6724.23 1002.14   3
  -1  -1 -16 6792.26 1112.17   1
  -1  -1 -15 5929.43 909.127   3
  -1  -1 -14 7193.35 705.182   5
  -1  -1 -13 604.910 431.155   5
  -1  -1 -12 18010.9 990.756   5
  -1  -1 -11 977.272 400.975   5
  -1  -1 -10 20676.3 959.633   5
  -1  -1 -10 13135.5 351.889   7
  -1  -1  -9 3115.53 457.616   5
  -1  -1  -9 2448.12 215.794   7
  -1  -1  -8 28755.1 1030.75   5
  -1  -1  -8 24387.4 603.759   7
  -1  -1  -7 861.888 333.568   5
  -1  -1  -7 698.789 206.666   7
  -1  -1  -6 17016.6 760.344   5
  -1  -1  -6 16778.0 562.171   7
  -1  -1  -5 22989.0 841.820   5
  -1  -1  -5 21501.4 624.228   7
  -1  -1  -4 13820.2 776.216   2
  -1  -1  -4 13338.9 652.174   5
  -1  -1  -4 13678.8 502.897   7
  -1  -1  -3-27.3577 340.788   2
  -1  -1  -3 125.032 184.128   7
  -1  -1  -3 271.630 253.825   5
  -1  -1  -2 17952.4 685.748   2
  -1  -1  -2 16490.6 613.404   5
  -1  -1  -1 78917.7 1191.46   5
  -1  -1   0 20034.0 578.689   5
  -1  -1   1 94209.7 1264.75   6
  -1  -1   1 94445.6 1070.43   5
  -1  -1   2 4801.76 251.201   5
  -1  -1   3 12609.2 319.692   5
  -1  -1   3 13545.3 561.594   3
  -1  -1   3 14923.6 605.023   1
  -1  -1   3 14565.8 634.454   4
  -1  -1   4 25601.4 807.499   1
  -1  -1   4 25913.7 799.243   3
  -1  -1   4 25876.6 882.411   4
  -1  -1   5 27086.0 865.555   3
  -1  -1   5 26083.6 956.151   4
  -1  -1   5 26507.6 915.107   1
  -1  -1   6 18252.9 879.383   4
  -1  -1   6 17895.3 826.396   1
  -1  -1   6 17700.9 755.545   3
  -1  -1   7 8139.42 686.684   4
  -1  -1   8 70955.2 1895.66   4
  -1  -1   9 12588.5 349.897   7
  -1  -1   9 12698.7 345.309   7
  -1  -1  10 30259.9 1432.05   4
  -1  -1  11 10379.8 965.978   4
  -1  -1  12 17827.0 1215.14   4
  -1   0 -20 3446.73 1122.83   1
  -1   0 -19 203.698 786.249   1
  -1   0 -18 5178.71 1101.95   1
  -1   0 -17 3010.40 906.990   1
  -1   0 -17 3307.47 802.797   3
  -1   0 -16 4257.71 798.837   3
  -1   0 -16 5130.24 979.450   1
  -1   0 -15 4518.63 790.487   3
  -1   0 -15 5567.34 945.176   1
  -1   0 -14 1579.72 422.386   5
  -1   0 -14 678.752 600.956   1
  -1   0 -14 1430.63 539.260   3
  -1   0 -13 9424.65 685.814   5
  -1   0 -13 9104.11 867.901   3
  -1   0 -13 9826.76 1048.18   1
  -1   0 -12 310.349 336.043   5
  -1   0 -11 19838.4 856.428   5
  -1   0 -10 145.235 304.757   5
  -1   0  -9 57253.7 1378.48   5
  -1   0  -9 46571.0 772.713   7
  -1   0  -8 937.500 319.743   5
  -1   0  -8 698.359 165.906   7
  -1   0  -7 41604.9 1104.61   5
  -1   0  -7 36114.0 701.135   7
  -1   0  -6 344.159 275.967   5
  -1   0  -6 265.461 175.386   7
  -1   0  -5 14052.1 458.371   7
  -1   0  -4 2244.53 232.507   7
  -1   0  -3 2451.03 231.256   7
  -1   0  -2 15720.2 434.155   7
  -1   0   2 85659.7 1168.53   3
  -1   0   2 82460.2 864.923   7
  -1   0   2 83133.4 1105.88   4
  -1   0   2 81647.5 829.335   1
  -1   0   3 10939.5 321.194   7
  -1   0   3 12068.8 534.588   3
  -1   0   3 11031.0 516.343   4
  -1   0   4 254156. 2557.08   4
  -1   0   4 253204. 2498.88   3
  -1   0   5 58865.2 1396.74   4
  -1   0   6 94200.5 913.311   5
  -1   0   6 103612. 1994.55   4
  -1   0   7 15240.8 888.935   4
  -1   0   8 60483.4 1768.11   4
  -1   0   9 6978.47 731.297   4
  -1   1 -20 380.366 831.359   1
  -1   1 -19 5810.22 1161.19   1
  -1   1 -18 428.886 725.210   1
  -1   1 -17 10645.4 1316.88   1
  -1   1 -16 1757.11 781.382   1
  -1   1 -16 2202.13 644.744   3
  -1   1 -15 6144.91 818.153   3
  -1   1 -15 5579.21 969.219   1
  -1   1 -14 4406.57 831.446   1
  -1   1 -14 3746.58 462.423   5
  -1   1 -14 4260.26 663.339   3
  -1   1 -13 7274.15 583.510   5
  -1   1 -13 9079.43 1008.92   1
  -1   1 -13 8741.48 787.876   3
  -1   1 -12 11939.5 845.288   3
  -1   1 -12 11049.6 692.584   5
  -1   1 -12 11491.3 1070.50   1
  -1   1 -11 5164.88 494.951   5
  -1   1 -11 5199.05 569.551   3
  -1   1 -11 4715.40 720.750   1
  -1   1 -10 32970.1 1563.70   1
  -1   1 -10 30303.5 1133.81   3
  -1   1  -9 3801.63 605.555   1
  -1   1  -8 45487.4 1632.34   1
  -1   1  -7-184.203 344.538   1
  -1   1  -7 200.986 227.805   7
  -1   1  -6 37704.1 1197.32   4
  -1   1  -6 35787.8 838.920   7
  -1   1  -5 537.725 272.808   4
  -1   1  -5 705.506 221.343   7
  -1   1  -4 45128.4 889.077   7
  -1   1  -4 46991.7 1073.96   4
  -1   1  -3 2955.31 288.068   4
  -1   1  -3 3158.31 291.848   7
  -1   1  -3 2901.51 338.047   1
  -1   1  -2 26677.9 633.467   7
  -1   1  -2 25220.9 524.634   4
  -1   1  -2 25124.0 672.490   1
  -1   1  -1 102215. 1174.91   7
  -1   1  -1 99168.0 1081.77   1
  -1   1   0 71302.8 990.532   7
  -1   1   1 48265.6 864.893   5
  -1   1   1 47565.7 654.285   4
  -1   1   1 47992.1 779.593   7
  -1   1   2 24155.9 627.414   5
  -1   1   2 22871.8 542.283   7
  -1   1   2 24016.1 606.336   4
  -1   1   3 95254.4 1246.33   5
  -1   1   3 95225.5 1413.31   4
  -1   1   3 94220.6 1077.28   7
  -1   1   4 8744.12 431.936   5
  -1   1   5 37645.3 862.937   5
  -1   1   6 1094.97 237.532   5
  -1   1   7 21829.7 710.422   5
  -1   1   8 1205.91 320.933   5
  -1   1   9 28035.0 896.924   5
  -1   2 -20 3738.32 1082.52   1
  -1   2 -19-8.75341 772.846   1
  -1   2 -18 8370.11 1240.30   1
  -1   2 -17 167.606 662.279   1
  -1   2 -16 9780.53 1231.71   1
  -1   2 -15 1827.00 735.982   1
  -1   2 -15 1148.24 476.747   3
  -1   2 -14 11869.9 717.936   5
  -1   2 -14 12471.1 909.194   3
  -1   2 -14 13486.4 1307.13   1
  -1   2 -13 8865.40 635.986   5
  -1   2 -13 9387.75 749.771   3
  -1   2 -13 8999.66 1039.03   1
  -1   2 -12 5187.70 806.121   1
  -1   2 -12 4799.83 553.147   3
  -1   2 -11 13636.0 747.157   3
  -1   2 -11 12724.9 1065.63   1
  -1   2 -10 15366.5 721.055   3
  -1   2 -10 14912.2 1087.14   1
  -1   2  -9 25925.9 1330.49   1
  -1   2  -9 26074.3 835.410   3
  -1   2  -8 6154.22 403.426   3
  -1   2  -8 6659.99 704.475   1
  -1   2  -7 71581.2 1919.89   1
  -1   2  -7 73509.1 1072.45   3
  -1   2  -6 3900.53 240.598   3
  -1   2  -6 5191.86 490.438   4
  -1   2  -6 4649.21 541.149   1
  -1   2  -5 48859.6 1370.30   1
  -1   2  -5 49286.4 1171.65   4
  -1   2  -4 14996.5 646.834   7
  -1   2  -4 14738.5 728.577   1
  -1   2  -4 16184.4 609.664   4
  -1   2  -3 28874.9 926.470   1
  -1   2  -3 28835.2 852.553   7
  -1   2  -3 26806.6 659.773   4
  -1   2  -2 11287.7 550.993   7
  -1   2  -2 10611.0 548.481   1
  -1   2  -1 25204.6 842.673   5
  -1   2  -1 28491.5 817.189   7
  -1   2   0 70752.2 1347.32   5
  -1   2   0 73043.2 1134.60   2
  -1   2   1 7574.57 558.216   5
  -1   2   1 7349.02 567.186   2
  -1   2   2 65396.0 1314.00   5
  -1   2   3 17697.7 736.634   5
  -1   2   4 57246.7 1307.87   5
  -1   2   5 413.289 278.150   5
  -1   2   6 40122.8 1165.21   5
  -1   2   7 771.130 302.455   5
  -1   2   8 33272.9 1095.89   5
  -1   2   9 3728.40 495.069   5
  -1   2  10 11435.6 745.862   5
  -1   3 -20-1125.65 1185.39   1
  -1   3 -19 2074.98 951.864   1
  -1   3 -18-822.679 972.867   1
  -1   3 -17 6711.20 1165.25   1
  -1   3 -16 455.212 688.878   1
  -1   3 -15 14060.4 1343.01   1
  -1   3 -14 5065.71 901.728   1
  -1   3 -14 5278.02 608.842   3
  -1   3 -13 15712.1 1330.31   1
  -1   3 -12 4672.02 783.503   1
  -1   3 -11 12379.6 1075.24   1
  -1   3 -10 9623.55 927.394   1
  -1   3  -9 25021.3 1325.05   1
  -1   3  -8 65887.8 2006.03   1
  -1   3  -8 65068.4 931.731   6
  -1   3  -7-287.718 424.736   1
  -1   3  -6 40420.4 1481.19   1
  -1   3  -6 40219.5 1192.59   4
  -1   3  -5 13726.9 702.217   5
  -1   3  -5 12712.2 826.129   1
  -1   3  -5 12848.8 660.019   4
  -1   3  -4 39811.9 1135.81   5
  -1   3  -4 36710.9 1254.53   1
  -1   3  -3 624.749 353.237   1
  -1   3  -3 300.111 295.365   5
  -1   3  -2 7922.44 623.983   5
  -1   3  -1 2847.29 449.205   5
  -1   3   0 9762.77 644.219   5
  -1   3   0 11599.4 626.351   2
  -1   3   1 28521.0 997.735   2
  -1   3   1 27875.1 1054.02   5
  -1   3   2 1862.05 376.968   2
  -1   3   2 2425.51 427.855   5
  -1   3   3 77534.4 1765.37   5
  -1   3   4 15422.1 858.854   5
  -1   4 -20 3461.56 1249.55   1
  -1   4 -19 154.072 965.234   1
  -1   4 -18 4336.92 1117.11   1
  -1   4 -17-1443.32 1066.18   1
  -1   4 -16 7495.87 1200.75   1
  -1   4 -15 71.3392 853.197   1
  -1   4 -14 13522.5 1383.30   1
  -1   4 -13 2238.62 795.605   1
  -1   4 -12 11873.5 559.611   6
  -1   4 -12 12408.6 1233.58   1
  -1   4 -11 3256.52 735.112   1
  -1   4 -11 3457.01 307.518   6
  -1   4 -10 4781.15 774.086   1
  -1   4  -9 22327.5 1389.93   1
  -1   4  -8 6270.48 822.658   1
  -1   4  -7 56157.7 1932.39   1
  -1   4  -6 2153.18 533.523   1
  -1   4  -5 56661.4 1746.85   1
  -1   4   0 2886.21 527.794   2
  -1   5 -19 5313.43 1341.85   1
  -1   5 -18 564.124 923.640   1
  -1   5 -17 7331.19 1348.70   1
  -1   5 -16-537.101 854.882   1
  -1   5 -15 11634.3 1429.69   1
  -1   5 -14 2379.20 885.078   1
  -1   5 -13 27332.7 1878.30   1
  -1   5 -12 909.766 698.675   1
  -1   5 -11 10905.6 1182.99   1
  -1   5 -10 5534.47 909.487   1
  -1   5  -9 17523.3 1294.81   1
  -1   5  -8 6693.17 840.045   1
  -1   5  -7 17379.6 1180.31   1
  -1   6 -19 3548.02 1264.19   1
  -1   6 -18 5880.10 1309.75   1
  -1   6 -17 2544.49 1085.11   1
  -1   6 -16 6724.97 1301.19   1
  -1   6 -15 930.205 867.881   1
  -1   6 -14 11428.1 1403.22   1
  -1   6 -13 725.169 784.661   1
  -1   6 -12 13733.9 1374.79   1
  -1   6 -11 5168.75 974.981   1
  -1   6 -10 12486.8 1252.49   1
  -1   7 -18 8094.66 1486.82   1
  -1   7 -17 3804.07 1228.71   1
  -1   7 -16 4612.63 1225.53   1
  -1   7 -15 5335.22 1232.53   1
  -1   7 -14 4110.19 1102.77   1
   0 -12   0 753.816 874.361   7
   0 -12   1 4609.56 1162.19   7
   0 -12   2 1859.38 1030.04   7
   0 -12   3 6991.98 1444.18   5
   0 -12   3 6686.28 1305.79   7
   0 -12   4 8408.98 1510.96   5
   0 -12   4 6948.79 1307.37   7
   0 -12   5 2793.21 1055.99   7
   0 -12   6 7544.36 1321.90   7
   0 -11  -5-375.814 809.273   7
   0 -11  -4 3959.77 1007.42   7
   0 -11  -3 1091.03 988.506   5
   0 -11  -3-201.842 784.929   7
   0 -11  -2 8064.98 1389.00   5
   0 -11  -2 8041.26 1246.56   7
   0 -11  -1 389.808 929.179   5
   0 -11  -1 375.611 782.253   7
   0 -11   0 8620.29 1428.50   5
   0 -11   0 8171.23 1272.00   7
   0 -11   1 3084.09 1185.38   5
   0 -11   1 3768.75 1071.56   7
   0 -11   2 14411.4 1639.42   5
   0 -11   2 16566.8 1635.92   7
   0 -11   3 7382.63 1287.13   7
   0 -11   3 8475.83 1495.47   5
   0 -11   4 4981.54 1223.79   5
   0 -11   4 5292.37 1130.30   7
   0 -11   5 10967.7 1506.28   5
   0 -11   5 10778.5 1400.41   7
   0 -11   6 3074.34 1032.70   7
   0 -11   7 7122.58 1249.28   7
   0 -11   8 966.163 943.788   7
   0 -11   9 4495.50 1116.50   7
   0 -11  10 143.292 821.378   7
   0 -11  11 5530.55 1179.04   7
   0 -11  12 640.756 920.749   7
   0 -11  13 4094.86 1088.82   7
   0 -11  14 1449.92 927.629   7
   0 -11  15 1229.78 915.956   7
   0 -11  16 705.880 899.907   7
   0 -10  -8 2547.72 1096.59   5
   0 -10  -7 2330.29 1051.20   5
   0 -10  -6 3214.25 1102.88   5
   0 -10  -6 2406.34 860.098   7
   0 -10  -5 3960.86 1112.86   5
   0 -10  -5 1939.43 816.286   7
   0 -10  -4-175.091 866.607   5
   0 -10  -4 217.870 721.708   7
   0 -10  -3 10160.0 1436.37   5
   0 -10  -3 7964.65 1145.34   7
   0 -10  -2 241.419 791.208   5
   0 -10  -2-327.372 682.183   7
   0 -10  -1 7554.43 1279.92   5
   0 -10  -1 9100.12 1225.40   7
   0 -10   0 1716.88 883.250   5
   0 -10   0 1422.00 812.522   7
   0 -10   1 14244.5 1543.55   5
   0 -10   1 14403.2 1446.71   7
   0 -10   2 5448.24 1204.00   5
   0 -10   3 14239.5 1538.82   5
   0 -10   3 13771.2 1414.68   7
   0 -10   4 8177.66 1182.30   7
   0 -10   4 6932.65 1246.74   5
   0 -10   5 5526.64 1114.97   5
   0 -10   5 5647.63 1055.03   7
   0 -10   6 13368.5 1478.21   5
   0 -10   6 12323.1 1359.92   7
   0 -10   7 3711.21 986.666   4
   0 -10   7 2968.52 962.620   7
   0 -10   8 5887.42 982.833   4
   0 -10   8 5273.72 1081.77   7
   0 -10   9-78.7056 708.677   4
   0 -10   9 189.840 754.670   7
   0 -10  10 6430.79 1165.08   7
   0 -10  11-65.8001 787.492   7
   0 -10  12 5691.63 1112.35   7
   0 -10  13 57.6958 837.019   7
   0 -10  14 1988.01 896.471   7
   0 -10  15 743.622 795.876   7
   0 -10  16 2554.28 938.346   7
   0  -9 -11 2396.76 1009.19   5
   0  -9 -10 970.601 949.503   5
   0  -9  -9 4558.29 1184.62   5
   0  -9  -8 2503.55 1055.19   5
   0  -9  -7 4481.56 1115.93   5
   0  -9  -7 3609.35 864.354   7
   0  -9  -6 4948.41 1121.42   5
   0  -9  -6 3538.18 852.786   7
   0  -9  -5 3913.41 1024.07   5
   0  -9  -5 2670.93 805.955   7
   0  -9  -4 7106.00 1197.33   5
   0  -9  -4 7731.36 1049.66   7
   0  -9  -3 876.245 791.150   5
   0  -9  -2 11589.5 1368.44   5
   0  -9  -1 444.491 778.838   5
   0  -9   0 17452.5 1575.22   5
   0  -9   1 779.650 854.372   5
   0  -9   2 13850.0 1414.88   5
   0  -9   3 5379.98 1112.11   5
   0  -9   4 8677.17 1159.33   5
   0  -9   5 5266.27 975.761   5
   0  -9   6 3686.94 889.182   5
   0  -9   7 11524.5 1143.73   4
   0  -9   8 2328.96 778.200   4
   0  -9   8 2486.08 847.506   7
   0  -9   9 6184.46 890.191   4
   0  -9   9 5940.90 1035.22   7
   0  -9  10-299.527 644.300   4
   0  -9  10-66.8247 714.439   7
   0  -9  11 11333.7 1274.58   7
   0  -9  11 14260.0 1214.63   4
   0  -9  12 422.856 637.353   4
   0  -9  12-126.930 758.365   7
   0  -9  13 6642.55 975.049   4
   0  -9  13 6217.52 1060.35   7
   0  -9  14 1135.75 786.555   7
   0  -9  14 1241.68 713.503   4
   0  -9  15 5042.09 967.458   4
   0  -9  15 4482.26 1001.64   7
   0  -9  16 1051.07 739.024   4
   0  -9  16 1845.20 841.589   7
   0  -9  17 4599.29 997.401   4
   0  -8 -12 6508.26 1237.79   5
   0  -8 -11 631.564 834.517   5
   0  -8 -10 5568.44 1185.77   5
   0  -8  -9 708.879 798.578   5
   0  -8  -8 7844.36 1226.93   5
   0  -8  -8 5992.39 894.766   7
   0  -8  -7 1734.28 862.093   5
   0  -8  -7 778.628 618.446   7
   0  -8  -6 5085.43 1008.19   5
   0  -8  -6 5275.43 874.440   7
   0  -8  -5 7695.75 1145.78   5
   0  -8  -4 2923.59 825.770   5
   0  -8  -3 9897.49 1201.34   5
   0  -8  -2 34.5407 649.721   5
   0  -8  -1 19508.7 1524.61   5
   0  -8   0-368.498 657.956   5
   0  -8   1 21977.7 1583.83   5
   0  -8   2 2328.00 892.861   5
   0  -8   3 17010.9 1413.32   5
   0  -8   4 4729.05 938.017   5
   0  -8   5 36048.3 1884.64   5
   0  -8   6 8446.75 1077.35   5
   0  -8   7 14799.8 1197.14   4
   0  -8   8 10850.0 1071.63   4
   0  -8   9 2709.83 677.337   4
   0  -8   9 2179.52 756.969   7
   0  -8  10 8508.95 1095.53   7
   0  -8  10 9663.81 1018.69   4
   0  -8  11 1246.32 646.450   4
   0  -8  11 648.306 659.802   7
   0  -8  12 11153.4 1189.79   7
   0  -8  12 13305.4 1181.02   4
   0  -8  13 913.134 670.731   4
   0  -8  13 176.194 654.761   7
   0  -8  14 7599.78 1058.49   7
   0  -8  14 10342.6 1151.30   4
   0  -8  15 565.170 682.545   4
   0  -8  15 416.004 666.442   7
   0  -8  16 6384.32 1053.46   4
   0  -8  16 5393.30 921.970   7
   0  -8  17 1205.07 802.810   4
   0  -8  18 6793.58 1181.73   4
   0  -8  19 1625.25 891.714   4
   0  -7 -12 1366.08 801.762   5
   0  -7 -11 9150.59 1248.75   5
   0  -7 -10 479.798 713.994   5
   0  -7  -9 10192.8 1243.26   5
   0  -7  -8-157.476 574.624   7
   0  -7  -8 1035.77 727.202   5
   0  -7  -7 8768.49 925.615   7
   0  -7  -7 10008.2 1177.12   5
   0  -7  -6 4077.59 884.171   5
   0  -7  -5 11581.2 1182.49   5
   0  -7  -4 8063.35 1019.60   5
   0  -7  -3 7198.88 945.251   5
   0  -7  -2 13825.7 1226.40   5
   0  -7  -1 3511.38 754.906   5
   0  -7   0 9879.92 1051.00   5
   0  -7   1 2547.63 753.967   5
   0  -7   2 16318.3 1259.25   5
   0  -7   3 9149.45 1049.84   5
   0  -7   4 45532.8 1928.93   5
   0  -7   5 9314.24 1065.22   5
   0  -7   6 34947.7 1682.85   5
   0  -7   6 36549.2 1552.02   4
   0  -7   7 19602.9 1229.05   4
   0  -7   8 6043.67 778.475   4
   0  -7   9 11846.8 1086.96   7
   0  -7   9 12286.7 1015.09   4
   0  -7  10 4461.94 850.048   7
   0  -7  10 6314.11 862.269   4
   0  -7  11 11399.3 1106.15   7
   0  -7  11 10709.0 1034.88   4
   0  -7  12 1111.23 657.221   4
   0  -7  12 1439.69 675.191   7
   0  -7  13 14307.4 1242.13   4
   0  -7  13 13191.0 1220.02   7
   0  -7  14 337.794 666.493   4
   0  -7  14 381.707 625.370   7
   0  -7  15 10276.0 1153.96   4
   0  -7  15 8984.05 1028.51   7
   0  -7  16-535.068 716.155   4
   0  -7  17 7666.53 1144.67   4
   0  -7  18 1026.61 787.026   4
   0  -7  19 4644.22 1085.73   4
   0  -6 -14 3363.68 1195.37   2
   0  -6 -13 6835.57 1345.14   2
   0  -6 -13 3531.99 907.621   5
   0  -6 -12 10168.0 1230.54   5
   0  -6 -12 14384.4 1558.24   2
   0  -6 -11 7228.84 1312.15   2
   0  -6 -11 3519.34 851.515   5
   0  -6 -10 9833.83 1151.93   5
   0  -6  -9 388.751 618.883   5
   0  -6  -9-287.943 491.492   7
   0  -6  -8 10738.3 1118.20   5
   0  -6  -8 8612.92 826.595   7
   0  -6  -7 1219.06 662.340   5
   0  -6  -6 14683.1 1218.00   5
   0  -6  -5 5554.79 842.765   5
   0  -6  -4 14362.3 1154.23   5
   0  -6  -3 13381.2 1127.38   5
   0  -6  -2 22025.0 1330.70   5
   0  -6  -1 6455.68 806.798   5
   0  -6   0 9068.88 937.884   5
   0  -6   1 28315.9 1456.53   5
   0  -6   2 11115.4 1005.78   5
   0  -6   3 51816.5 1909.25   5
   0  -6   4 8384.05 933.422   5
   0  -6   5 71798.3 2176.28   5
   0  -6   6 1662.42 541.767   6
   0  -6   6 1048.91 562.515   5
   0  -6   7 9696.62 784.568   6
   0  -6   7 10572.8 869.613   4
   0  -6   8 21941.9 1191.07   4
   0  -6   9 15367.0 1057.43   4
   0  -6  10 9004.09 938.684   7
   0  -6  10 10459.6 961.033   4
   0  -6  11 2788.87 665.460   4
   0  -6  11 2116.94 636.022   7
   0  -6  12 14542.1 1143.89   7
   0  -6  12 14573.2 1176.73   4
   0  -6  13 3816.32 783.119   4
   0  -6  13 3542.01 732.938   7
   0  -6  14 17020.7 1366.67   4
   0  -6  14 15331.8 1162.10   7
   0  -6  15 2633.87 794.533   4
   0  -6  15 1892.73 607.217   7
   0  -6  16 7528.96 1076.95   4
   0  -6  17 498.833 700.602   4
   0  -6  18 4754.89 1007.07   4
   0  -5 -16 3645.88 1154.46   3
   0  -5 -15 3327.75 1156.05   2
   0  -5 -14 7943.16 1356.44   2
   0  -5 -13 7179.39 996.705   5
   0  -5 -13 9887.00 1411.51   2
   0  -5 -12 8908.37 1039.06   5
   0  -5 -12 12311.2 1462.69   2
   0  -5 -11 12679.5 1206.90   5
   0  -5 -11 12671.2 1466.07   2
   0  -5 -10 6873.25 1164.11   2
   0  -5 -10 4090.40 803.663   5
   0  -5  -9 5133.00 848.067   5
   0  -5  -9 3535.84 551.396   7
   0  -5  -8 187.294 512.468   5
   0  -5  -8 1715.40 822.134   2
   0  -5  -7 21945.8 1385.68   5
   0  -5  -7 26206.7 1675.32   2
   0  -5  -6 1477.97 585.098   5
   0  -5  -5 16857.0 1169.16   5
   0  -5  -4 5823.27 781.820   5
   0  -5  -3 41272.9 1655.27   5
   0  -5  -2 15070.1 1042.27   5
   0  -5  -1 22581.0 1217.20   5
   0  -5   0 41527.0 1590.82   5
   0  -5   1 7423.59 873.707   5
   0  -5   2 57052.3 1795.27   5
   0  -5   3 16555.4 1086.64   5
   0  -5   4 64842.0 1865.74   5
   0  -5   5 7333.68 764.088   4
   0  -5   5 6628.70 743.940   5
   0  -5   5 5212.02 613.131   6
   0  -5   6 44900.8 1322.47   6
   0  -5   6 46730.3 1540.50   4
   0  -5   7-431.739 433.180   4
   0  -5   8 16677.7 1027.48   4
   0  -5   9 4063.50 438.854   3
   0  -5   9 4201.46 655.827   7
   0  -5   9 5407.60 692.078   4
   0  -5  10 15472.5 731.161   3
   0  -5  10 14623.1 1009.21   7
   0  -5  10 16084.7 1105.75   4
   0  -5  11 6922.20 520.214   3
   0  -5  11 8117.08 816.655   7
   0  -5  11 8813.09 914.821   4
   0  -5  12 3695.12 796.424   4
   0  -5  12 3959.93 706.918   7
   0  -5  13 13998.0 1008.16   7
   0  -5  13 14917.3 1241.15   4
   0  -5  14 4183.01 649.604   7
   0  -5  14 5194.22 883.898   4
   0  -5  15 9511.65 1150.84   4
   0  -5  15 8154.74 790.311   7
   0  -5  16 78.5731 624.575   4
   0  -5  17 7888.19 1124.47   4
   0  -4 -17 6438.49 1296.91   3
   0  -4 -16 234.670 929.408   2
   0  -4 -16 491.900 826.599   3
   0  -4 -15 4838.90 1176.99   2
   0  -4 -14 1232.69 914.238   2
   0  -4 -13 4370.05 767.292   5
   0  -4 -13 4366.01 1056.55   2
   0  -4 -12 3825.14 763.997   5
   0  -4 -12 3444.03 972.121   2
   0  -4 -11 8170.16 1162.26   2
   0  -4 -11 9029.40 939.442   5
   0  -4 -10 1779.33 579.920   5
   0  -4 -10 2123.54 814.964   2
   0  -4 -10 1720.15 386.625   7
   0  -4  -9 249.641 669.417   2
   0  -4  -9 364.416 479.031   5
   0  -4  -9 415.971 335.225   7
   0  -4  -8 14054.5 1044.53   5
   0  -4  -8 16499.5 1312.84   2
   0  -4  -7 697.938 506.939   5
   0  -4  -7 1960.05 764.501   2
   0  -4  -6 31638.8 1398.01   5
   0  -4  -6 31042.9 1553.92   2
   0  -4  -5 3217.32 588.357   5
   0  -4  -5 4652.11 758.185   2
   0  -4  -4 64537.9 1883.35   5
   0  -4  -3 10176.7 826.885   5
   0  -4  -2 77694.9 1974.94   5
   0  -4  -1 55628.8 1652.81   5
   0  -4   0 2747.40 538.876   5
   0  -4   1 27700.1 1139.43   5
   0  -4   2 13154.2 835.634   5
   0  -4   3 39223.1 1323.47   5
   0  -4   4 3633.62 573.950   5
   0  -4   5 38768.9 1240.75   5
   0  -4   5 38990.8 1272.19   4
   0  -4   5 38605.1 1071.15   6
   0  -4   6 9320.60 696.433   4
   0  -4   7 32456.3 1253.11   4
   0  -4   8 357.060 407.830   4
   0  -4   8 137.385 250.161   3
   0  -4   9 25156.2 828.077   3
   0  -4   9 25992.3 1138.04   7
   0  -4   9 25717.2 1233.16   4
   0  -4  10 4113.93 564.422   7
   0  -4  10 3547.32 383.160   3
   0  -4  10 4302.30 661.054   4
   0  -4  11 15888.5 1138.42   4
   0  -4  11 16842.6 973.485   7
   0  -4  12 11310.8 1035.29   4
   0  -4  12 12110.5 809.105   7
   0  -4  13 6884.43 651.086   7
   0  -4  13 8153.03 963.021   4
   0  -4  14 7987.75 1006.10   4
   0  -4  14 7637.94 660.939   7
   0  -4  15 6074.59 953.839   4
   0  -3 -19 92.6704 903.177   3
   0  -3 -18 6046.14 1237.07   1
   0  -3 -18 6770.67 1323.87   3
   0  -3 -17-787.391 1032.88   2
   0  -3 -17-193.657 810.202   3
   0  -3 -16 4763.84 1060.43   3
   0  -3 -16 3758.90 1098.76   2
   0  -3 -15 1672.87 804.117   3
   0  -3 -15 789.706 869.712   2
   0  -3 -14 5449.88 1047.03   2
   0  -3 -13 1711.68 794.346   2
   0  -3 -13 3446.94 678.809   5
   0  -3 -12 8022.80 811.153   5
   0  -3 -12 6327.55 1044.03   2
   0  -3 -11 4795.04 683.311   5
   0  -3 -11 3463.65 837.217   2
   0  -3 -10 12420.2 1184.62   2
   0  -3 -10 11914.7 912.853   5
   0  -3 -10 10417.6 488.149   7
   0  -3  -9 13943.9 1229.32   2
   0  -3  -9 11809.5 891.913   5
   0  -3  -9 10550.5 547.781   7
   0  -3  -8 2527.78 677.668   2
   0  -3  -8 2537.54 523.889   5
   0  -3  -7 33251.1 1621.62   2
   0  -3  -7 31908.4 1305.50   5
   0  -3  -6 276.682 522.983   2
   0  -3  -6 653.930 408.143   5
   0  -3  -5 62514.8 1910.85   2
   0  -3  -5 61627.0 1672.84   5
   0  -3  -4-225.300 385.944   5
   0  -3  -4 79.9190 500.247   2
   0  -3  -3 53041.1 1460.05   5
   0  -3  -3 52554.0 1540.71   2
   0  -3  -2 10396.2 697.963   5
   0  -3  -1 54579.2 1406.05   5
   0  -3   0 21520.0 941.452   5
   0  -3   1 4637.98 501.994   5
   0  -3   2 58846.1 1356.53   5
   0  -3   3 39290.6 1106.26   5
   0  -3   3 35776.3 1163.17   1
   0  -3   4 2455.58 335.184   6
   0  -3   4 3346.25 418.934   5
   0  -3   4 2902.63 435.428   4
   0  -3   4 2254.43 477.408   1
   0  -3   5 6683.73 553.673   4
   0  -3   6 38189.2 888.484   3
   0  -3   6 37948.2 1220.60   4
   0  -3   7 15098.8 584.183   3
   0  -3   7 14905.7 841.680   4
   0  -3   8 32941.6 1090.23   7
   0  -3   8 33262.2 886.314   3
   0  -3   8 34562.0 1307.20   4
   0  -3   9 833.684 423.157   4
   0  -3   9 713.467 345.366   7
   0  -3  10 29252.3 1068.23   7
   0  -3  10 30413.6 1402.21   4
   0  -3  11 3035.67 620.129   4
   0  -3  11 2501.73 401.738   7
   0  -3  12 16872.4 1238.79   4
   0  -3  12 15113.0 766.947   7
   0  -3  13 8434.27 571.420   7
   0  -3  13 10342.5 1015.05   4
   0  -3  14 4899.50 850.236   4
   0  -2 -20 1517.25 998.295   1
   0  -2 -19 2020.63 974.835   1
   0  -2 -19 3219.29 1093.92   3
   0  -2 -18-4.60394 810.542   1
   0  -2 -18-1804.98 1136.46   2
   0  -2 -18 116.654 796.870   3
   0  -2 -17 4508.59 1114.10   2
   0  -2 -17 7680.11 1220.89   1
   0  -2 -17 6680.05 1169.23   3
   0  -2 -16-520.284 727.331   1
   0  -2 -16 280.373 714.274   3
   0  -2 -16-1555.92 1012.42   2
   0  -2 -15 7183.11 1108.41   2
   0  -2 -15 8116.61 1102.84   3
   0  -2 -14 1312.09 673.124   3
   0  -2 -14 379.523 827.629   2
   0  -2 -13 7799.40 1128.04   2
   0  -2 -13 9617.37 787.770   5
   0  -2 -12 733.499 440.142   5
   0  -2 -11 8725.23 727.384   5
   0  -2 -10 9419.11 722.033   5
   0  -2  -9 14554.8 409.508   7
   0  -2  -9 13735.9 390.502   7
   0  -2  -8 20190.1 972.251   5
   0  -2  -7 3626.83 630.932   2
   0  -2  -7 3660.58 492.910   5
   0  -2  -6 28258.7 1253.31   2
   0  -2  -6 28432.2 1037.79   5
   0  -2  -5-131.047 459.917   2
   0  -2  -5 162.114 291.184   5
   0  -2  -4 39702.3 1297.76   2
   0  -2  -4 38329.6 1104.62   5
   0  -2  -3-79.1494 375.607   2
   0  -2  -3-392.608 305.973   5
   0  -2  -2 70743.3 1367.83   5
   0  -2  -2 73388.4 1458.56   2
   0  -2  -1 13464.5 618.832   5
   0  -2   0 112247. 1616.90   5
   0  -2   1 47176.1 1035.32   5
   0  -2   2 55219.3 1056.58   5
   0  -2   2 52855.5 1133.32   1
   0  -2   3 4953.25 326.346   6
   0  -2   3 5411.90 406.159   5
   0  -2   3 4770.79 471.267   1
   0  -2   3 4595.25 416.828   4
   0  -2   4 78385.4 1553.47   1
   0  -2   4 80937.0 1425.41   4
   0  -2   5 10054.8 429.061   3
   0  -2   5 9881.46 677.678   1
   0  -2   5 10129.7 614.292   4
   0  -2   6 32671.6 779.092   3
   0  -2   6 32759.7 1199.14   1
   0  -2   6 31919.3 1079.05   4
   0  -2   7 31132.5 899.875   7
   0  -2   7 31723.0 1188.01   4
   0  -2   8 1941.45 324.337   7
   0  -2   8 2692.99 521.886   4
   0  -2   9 25870.0 807.780   7
   0  -2   9 30596.8 1317.90   4
   0  -2  10 1116.62 585.781   4
   0  -2  10 628.545 280.976   7
   0  -2  11 20847.9 1259.67   4
   0  -2  11 16707.1 628.568   7
   0  -2  12 3767.28 310.336   7
   0  -2  12 4676.41 735.139   4
   0  -2  13 2510.73 235.236   7
   0  -1 -20 3293.50 1150.13   1
   0  -1 -19-243.153 1016.07   2
   0  -1 -19 1871.00 982.255   1
   0  -1 -18 6896.73 1198.32   1
   0  -1 -18 7761.72 1218.45   3
   0  -1 -17 443.593 737.275   1
   0  -1 -17 861.379 774.463   3
   0  -1 -16 14915.4 1458.24   1
   0  -1 -16 15749.0 1440.08   3
   0  -1 -15 564.959 615.698   3
   0  -1 -15-283.113 675.962   1
   0  -1 -14 18284.8 1379.14   3
   0  -1 -14 17161.2 1422.22   1
   0  -1 -13 365.234 511.248   3
   0  -1 -13 52.2394 377.967   5
   0  -1 -12 20341.2 932.367   5
   0  -1 -12 21461.3 1351.83   3
   0  -1 -11 620.378 351.645   5
   0  -1 -10 35666.3 1121.33   5
   0  -1  -9 6532.67 548.064   5
   0  -1  -8 33524.0 1012.58   5
   0  -1  -7 4060.59 432.021   5
   0  -1  -6 13317.7 629.532   5
   0  -1  -5 801.402 282.953   5
   0  -1  -5 784.622 321.924   4
   0  -1  -4 69.8167 224.014   5
   0  -1  -3 10072.4 466.026   5
   0  -1  -2 522.473 241.063   2
   0  -1  -2 871.704 206.129   5
   0  -1  -1 72698.4 952.387   5
   0  -1   2 68740.5 916.776   4
   0  -1   3 9707.88 316.786   3
   0  -1   3 9310.43 428.649   4
   0  -1   3 9634.09 467.654   1
   0  -1   4 119805. 1680.98   4
   0  -1   4 119712. 1737.78   1
   0  -1   5 17202.7 753.898   4
   0  -1   5 18268.2 503.159   7
   0  -1   6 55493.9 818.993   7
   0  -1   6 59029.6 1473.13   4
   0  -1   7 6774.40 316.054   7
   0  -1   7 7160.51 647.579   4
   0  -1   8 85886.0 2048.51   4
   0  -1   8 74792.7 939.273   7
   0  -1   9 5429.50 717.932   4
   0  -1   9 3689.70 231.485   7
   0  -1  10 30583.3 488.333   7
   0   0 -20 4946.81 1181.35   1
   0   0 -19 2080.12 977.132   1
   0   0 -18 7445.13 1227.46   1
   0   0 -18 6350.60 1073.82   3
   0   0 -17 10766.1 1217.90   3
   0   0 -17 10473.8 1336.99   1
   0   0 -16 12285.0 1226.45   3
   0   0 -16 11102.6 1280.67   1
   0   0 -15 5918.12 960.403   1
   0   0 -15 5932.57 883.944   3
   0   0 -14 5002.58 789.844   3
   0   0 -14 4989.56 856.510   1
   0   0 -13 5577.88 461.479   5
   0   0 -13 7038.44 841.254   3
   0   0 -13 7086.18 902.382   1
   0   0 -12 778.488 277.924   5
   0   0 -12 1187.89 529.984   1
   0   0 -12 959.501 488.953   3
   0   0 -11 2375.62 565.270   1
   0   0 -11 2404.97 337.349   5
   0   0 -11 2142.08 503.323   3
   0   0 -10 2751.71 646.258   3
   0   0 -10 2925.48 406.269   5
   0   0  -9 1959.58 460.843   3
   0   0  -9 2274.48 323.356   5
   0   0  -8 18595.2 703.929   5
   0   0  -7 1790.87 270.904   5
   0   0  -6 32802.9 712.810   5
   0   0  -6 39625.3 1276.09   4
   0   0  -5 28658.0 630.718   5
   0   0  -5 30249.1 1016.97   4
   0   0  -4 120189. 1133.89   5
   0   0  -4 122212. 1797.22   4
   0   0  -3 1857.81 166.564   5
   0   0  -3 1824.95 262.943   4
   0   0   3 2103.80 273.032   4
   0   1 -20 181.207 825.397   1
   0   1 -19 4522.97 1080.80   1
   0   1 -18 2466.55 903.657   1
   0   1 -17 6869.27 1097.36   1
   0   1 -17 8205.52 1050.62   3
   0   1 -16 19099.4 1375.70   3
   0   1 -16 18340.1 1578.23   1
   0   1 -15 2365.01 670.290   3
   0   1 -15 2092.95 747.479   1
   0   1 -14 9071.57 957.944   3
   0   1 -14 9235.69 1111.89   1
   0   1 -13 454.695 520.654   1
   0   1 -13 145.423 196.141   5
   0   1 -13 458.575 442.886   3
   0   1 -12 18493.3 631.635   5
   0   1 -12 23021.8 1188.91   3
   0   1 -12 22065.5 1394.00   1
   0   1 -11 2119.13 591.097   1
   0   1 -11 1697.28 252.929   5
   0   1 -11 1983.37 487.850   3
   0   1 -10 46274.5 941.941   5
   0   1 -10 49113.3 1524.60   3
   0   1 -10 47966.4 1787.93   1
   0   1  -9 6216.03 754.735   1
   0   1  -9 6028.94 407.476   5
   0   1  -9 5844.34 605.412   3
   0   1  -8 87425.1 1733.84   3
   0   1  -8 88183.8 2131.01   1
   0   1  -7 7335.93 520.150   3
   0   1  -7 7384.79 641.240   1
   0   1  -6 55642.3 1168.64   3
   0   1  -6 58599.0 1456.27   4
   0   1  -6 57091.7 1484.11   1
   0   1  -5 17492.7 589.159   3
   0   1  -5 18487.4 782.418   4
   0   1  -5 17159.9 775.860   1
   0   1  -4 114944. 1262.70   3
   0   1  -4 116633. 1660.72   4
   0   1  -4 117170. 1750.88   1
   0   1  -3 9343.61 463.048   1
   0   1  -3 9484.17 321.245   3
   0   1  -3 9799.71 450.341   4
   0   1  -2 75197.4 819.833   5
   0   1   2 676.947 198.561   5
   0   1   3 9760.20 433.868   5
   0   1   4 56.7878 220.287   5
   0   1   5 1083.83 300.183   5
   0   1   6 14053.1 634.377   5
   0   1   7 3234.65 454.508   5
   0   2 -20 4940.63 1174.19   1
   0   2 -19-1510.79 997.471   1
   0   2 -18 12682.3 1442.31   1
   0   2 -17 10679.7 1305.67   1
   0   2 -16 7611.12 1101.44   1
   0   2 -16 7072.20 880.780   3
   0   2 -15 7748.15 1089.14   1
   0   2 -15 5852.65 800.183   3
   0   2 -14 6301.94 921.097   1
   0   2 -14 4979.16 684.244   3
   0   2 -13 3748.90 602.693   3
   0   2 -13 4391.50 804.522   1
   0   2 -13 2894.82 261.006   5
   0   2 -12 4803.73 764.300   1
   0   2 -12 4045.09 326.848   5
   0   2 -12 4805.74 602.572   3
   0   2 -11 19699.7 1262.71   1
   0   2 -11 21967.0 1063.41   3
   0   2 -10 862.108 440.971   3
   0   2 -10 833.887 534.448   1
   0   2  -9 29316.8 1359.59   1
   0   2  -9 30863.7 1058.69   3
   0   2  -8 2417.81 374.554   3
   0   2  -8 2277.89 491.285   1
   0   2  -7 31100.8 1252.55   1
   0   2  -7 33057.4 927.631   3
   0   2  -6 30660.9 1158.14   1
   0   2  -6 33010.5 1119.37   4
   0   2  -5 10964.3 477.037   5
   0   2  -5 10227.0 708.329   1
   0   2  -5 9666.71 623.925   4
   0   2  -4 84698.5 1076.44   6
   0   2  -4 86333.3 1247.55   5
   0   2  -4 82794.9 1693.43   1
   0   2  -4 84001.3 1477.97   4
   0   2  -3 5361.08 388.222   5
   0   2  -3 4495.38 451.580   1
   0   2  -2 53074.7 1017.11   5
   0   2  -1 45449.2 1040.06   5
   0   2   0 121434. 1662.92   5
   0   2   1 14779.3 658.372   2
   0   2   1 13625.0 607.165   5
   0   2   2 72492.7 1461.47   2
   0   2   2 71251.2 1375.26   5
   0   2   3-104.326 278.110   5
   0   2   4 39593.6 1101.95   5
   0   2   5 104.945 263.681   5
   0   2   6 28127.5 1043.95   5
   0   2   7 4071.09 510.676   5
   0   2   8 20734.7 1028.73   5
   0   3 -20-1124.07 1118.01   1
   0   3 -19 5577.39 1192.77   1
   0   3 -18-1125.39 983.804   1
   0   3 -17 3734.89 931.264   1
   0   3 -16 3814.50 916.276   1
   0   3 -15 4016.04 867.587   1
   0   3 -14 5154.33 899.930   1
   0   3 -13 10100.0 1090.47   1
   0   3 -12 16199.5 643.626   5
   0   3 -12 17316.5 1336.35   1
   0   3 -11 2976.61 349.608   5
   0   3 -11 1937.25 598.078   1
   0   3 -10 32797.2 945.342   5
   0   3 -10 32453.0 1619.40   1
   0   3  -9 401.293 443.748   1
   0   3  -9 802.052 274.044   5
   0   3  -8 35706.7 984.422   5
   0   3  -8 34836.2 1514.93   1
   0   3  -7 17038.6 681.415   6
   0   3  -7 15387.2 669.008   5
   0   3  -7 15842.8 1012.87   1
   0   3  -6 38943.5 1027.21   5
   0   3  -6 39085.7 1456.09   1
   0   3  -6 38296.9 1267.54   4
   0   3  -6 39892.0 927.196   6
   0   3  -5 6992.02 486.583   5
   0   3  -5 6757.66 639.591   1
   0   3  -4 2955.59 384.612   5
   0   3  -3 37668.6 1054.12   5
   0   3  -2 60812.3 1374.33   5
   0   3  -1 4912.63 491.845   5
   0   3   0 25230.8 995.094   5
   0   3   1 57395.2 1414.51   5
   0   3   1 52594.6 1355.37   2
   0   3   2 10057.4 710.147   2
   0   3   2 11396.2 712.433   5
   0   3   3 55651.7 1506.62   5
   0   4 -20 3353.74 1193.66   1
   0   4 -19-9.20236 950.040   1
   0   4 -18 6229.57 1263.70   1
   0   4 -17-408.934 849.680   1
   0   4 -16 6627.87 1138.44   1
   0   4 -15 6223.73 1114.03   1
   0   4 -14 9690.21 1230.54   1
   0   4 -13 7793.72 1071.91   1
   0   4 -12 10522.4 630.753   5
   0   4 -12 12240.5 1225.78   1
   0   4 -11 17432.8 876.061   6
   0   4 -11 16405.6 823.446   5
   0   4 -11 17194.0 1360.37   1
   0   4 -10 4153.74 473.759   6
   0   4 -10 4005.30 462.876   5
   0   4 -10 4463.55 797.647   1
   0   4  -9 25733.1 970.108   5
   0   4  -9 27925.6 1513.28   1
   0   4  -9 27639.9 911.268   6
   0   4  -8 336.162 477.492   1
   0   4  -8 342.332 306.487   5
   0   4  -7 31365.5 1440.25   1
   0   4  -7 32818.7 1115.26   5
   0   4  -6 9902.54 650.243   5
   0   4  -5 38662.8 1210.25   5
   0   4  -4 3313.20 509.777   5
   0   5 -20 92.5623 1007.51   1
   0   5 -19 5946.73 1333.02   1
   0   5 -18 779.099 914.419   1
   0   5 -17 8420.19 1349.07   1
   0   5 -16 878.306 845.620   1
   0   5 -15 12217.7 1458.74   1
   0   5 -14 5991.09 1122.88   1
   0   5 -13 17910.7 1564.19   1
   0   5 -12 4759.60 1012.41   1
   0   5 -11 9668.42 1097.61   1
   0   5 -10 16020.8 1302.33   1
   0   5  -9 6059.43 884.171   1
   0   6 -19 2309.43 1215.72   1
   0   6 -18 7698.33 1427.59   1
   0   6 -17 1199.46 960.554   1
   0   6 -16 12031.8 1506.02   1
   0   6 -15 3889.89 1090.56   1
   0   6 -14 21353.3 1786.10   1
   0   6 -13 5709.98 1118.06   1
   0   6 -12 16800.9 1527.46   1
   1 -12   1 264.148 862.467   7
   1 -12   2 5189.68 1254.91   7
   1 -12   3 1229.14 996.836   7
   1 -12   4 7144.50 1342.86   7
   1 -12   5 2762.19 1063.54   7
   1 -11  -5 96.6434 797.654   7
   1 -11  -4 4501.69 1068.60   7
   1 -11  -3 4131.07 1188.58   5
   1 -11  -3 1757.49 907.143   7
   1 -11  -2 6364.31 1371.54   5
   1 -11  -2 5167.65 1135.26   7
   1 -11  -1 1691.27 1048.45   5
   1 -11  -1 1754.82 912.104   7
   1 -11   0 3597.08 1153.05   5
   1 -11   0 2656.80 1033.99   7
   1 -11   1 6855.67 1339.63   5
   1 -11   1 7023.63 1247.52   7
   1 -11   2 6110.55 1207.24   7
   1 -11   3 10458.8 1413.86   7
   1 -11   4 4354.78 1094.35   7
   1 -11   5 10285.4 1377.75   7
   1 -11   6 2488.44 1014.39   7
   1 -11   7 9148.08 1386.76   7
   1 -11   8 419.930 881.249   7
   1 -11   9 3872.38 1071.42   7
   1 -11  10 1165.88 886.538   7
   1 -11  11 3456.20 1025.04   7
   1 -11  12 480.782 871.142   7
   1 -11  13 995.086 869.016   7
   1 -11  14 2918.81 1024.07   7
   1 -11  15-537.534 948.771   7
   1 -10  -8 237.444 868.753   5
   1 -10  -7 5178.15 1208.64   5
   1 -10  -6 728.207 885.998   5
   1 -10  -6-199.992 756.998   7
   1 -10  -5 7752.22 1348.60   5
   1 -10  -5 6187.31 1079.15   7
   1 -10  -4-193.386 838.614   5
   1 -10  -4 462.374 798.788   7
   1 -10  -3 9313.36 1241.46   7
   1 -10  -3 11987.1 1521.92   5
   1 -10  -2 1863.08 957.657   5
   1 -10  -2 1223.80 788.432   7
   1 -10  -1 8446.02 1320.23   5
   1 -10  -1 7338.98 1124.69   7
   1 -10   0 1317.61 922.684   5
   1 -10   0 860.433 793.380   7
   1 -10   1 6334.81 1170.89   5
   1 -10   1 7104.42 1148.17   7
   1 -10   2 7428.78 1297.90   5
   1 -10   2 7308.45 1177.71   7
   1 -10   3 6251.16 1107.00   7
   1 -10   3 5412.33 1131.35   5
   1 -10   4 5987.74 1064.06   7
   1 -10   5 1885.02 844.308   7
   1 -10   6 7139.64 1158.08   7
   1 -10   7 2194.72 924.623   7
   1 -10   8 3288.29 994.434   7
   1 -10   9 469.091 769.849   7
   1 -10  10 6365.48 1134.67   7
   1 -10  11 1042.81 871.202   7
   1 -10  12 10527.4 1335.12   7
   1 -10  13 2480.98 949.881   7
   1 -10  14 3734.08 1003.37   7
   1 -10  15 5170.32 1061.26   7
   1 -10  16-95.7414 811.158   7
   1  -9 -11 1049.48 898.233   5
   1  -9 -10 2848.65 1038.82   5
   1  -9  -9 61.6157 832.676   5
   1  -9  -8 3416.84 1062.65   5
   1  -9  -7 2183.33 934.488   5
   1  -9  -7 1382.72 701.589   7
   1  -9  -6 3472.33 1046.85   5
   1  -9  -6 3050.07 870.742   7
   1  -9  -5 1877.65 888.608   5
   1  -9  -5 1748.34 730.673   7
   1  -9  -4 11130.8 1408.88   5
   1  -9  -4 10531.8 1218.54   7
   1  -9  -3-429.395 754.279   5
   1  -9  -3-296.664 653.812   7
   1  -9  -2 8804.70 1259.42   5
   1  -9  -2 7938.38 1094.91   7
   1  -9  -1 2834.43 913.331   5
   1  -9  -1 1981.71 773.816   7
   1  -9   0 5680.52 1061.61   5
   1  -9   0 5776.50 977.407   7
   1  -9   1 3400.91 965.105   5
   1  -9   1 4515.88 929.034   7
   1  -9   2 13420.2 1435.91   5
   1  -9   2 13366.0 1314.93   7
   1  -9   3 8364.23 1219.77   5
   1  -9   3 7977.58 1087.62   7
   1  -9   4 5905.82 991.274   7
   1  -9   5 12934.6 1311.18   7
   1  -9   6 1735.46 696.353   4
   1  -9   6 3501.17 887.895   7
   1  -9   7 12641.1 1052.78   4
   1  -9   7 15149.9 1445.74   7
   1  -9   8-297.703 572.648   4
   1  -9   8 828.671 812.699   7
   1  -9   9 12649.2 1361.77   7
   1  -9   9 12549.8 1039.96   4
   1  -9  10 92.4303 534.956   4
   1  -9  10 27.9418 715.740   7
   1  -9  11 17278.4 1508.28   7
   1  -9  11 17712.0 1245.06   4
   1  -9  12 1168.13 748.528   7
   1  -9  13 10757.8 1265.14   7
   1  -9  14 3097.00 892.405   7
   1  -9  15 1521.05 823.188   7
   1  -9  16 3856.38 938.423   7
   1  -8 -12 1551.46 909.360   5
   1  -8 -11 1804.40 924.284   5
   1  -8 -10 2242.95 916.273   5
   1  -8  -9 5430.72 1096.56   5
   1  -8  -8 4782.18 1064.70   5
   1  -8  -8 3439.76 763.456   7
   1  -8  -7 5000.51 1063.00   5
   1  -8  -7 4910.01 845.156   7
   1  -8  -6 4390.64 1008.03   5
   1  -8  -6 4679.49 854.884   7
   1  -8  -5 12864.6 1398.49   5
   1  -8  -5 13587.5 1219.39   7
   1  -8  -4 2120.95 824.908   5
   1  -8  -4 1973.40 710.952   7
   1  -8  -3 13859.0 1363.95   5
   1  -8  -3 12308.3 1171.43   7
   1  -8  -2-317.103 663.591   5
   1  -8  -2-381.544 587.234   7
   1  -8  -1 7026.31 1025.93   5
   1  -8  -1 7651.43 962.120   7
   1  -8   0-134.588 649.200   5
   1  -8   0 842.448 663.458   7
   1  -8   1 11941.1 1257.94   5
   1  -8   1 12827.3 1168.75   7
   1  -8   2 3220.16 899.141   5
   1  -8   2 4466.30 879.923   7
   1  -8   3 13072.7 1283.46   5
   1  -8   3 13200.7 1195.21   7
   1  -8   4 11534.6 1215.95   5
   1  -8   4 12556.1 1184.93   7
   1  -8   5 6786.17 999.228   7
   1  -8   6 33780.4 1908.78   7
   1  -8   6 28967.2 1375.65   4
   1  -8   7 579.027 571.941   4
   1  -8   7 3306.67 916.748   7
   1  -8   8 35431.3 1491.05   4
   1  -8   8 34895.3 1928.93   7
   1  -8   9 1317.37 587.718   4
   1  -8   9 492.273 729.081   7
   1  -8  10 22007.7 1602.06   7
   1  -8  10 23636.6 1316.83   4
   1  -8  11 1309.73 584.351   4
   1  -8  11 763.684 679.619   7
   1  -8  12 22243.6 1573.03   7
   1  -8  12 23728.6 1418.75   4
   1  -8  13 420.902 613.689   4
   1  -8  13 592.725 710.844   7
   1  -8  14 11207.8 1150.18   4
   1  -8  14 10165.7 1147.58   7
   1  -8  15 518.082 681.115   4
   1  -8  15 811.587 693.275   7
   1  -8  16 2366.19 791.246   4
   1  -8  16 3082.79 845.502   7
   1  -8  17 712.885 721.068   4
   1  -7 -12-164.211 741.712   5
   1  -7 -11 10160.3 1279.26   5
   1  -7 -10 1677.09 820.055   5
   1  -7  -9 9270.21 1196.62   5
   1  -7  -8 3526.61 914.636   5
   1  -7  -8 3961.49 752.722   7
   1  -7  -7 9498.13 1193.82   5
   1  -7  -7 9237.78 961.775   7
   1  -7  -6 5907.54 1065.67   5
   1  -7  -6 4180.64 814.729   7
   1  -7  -5 3824.87 878.081   5
   1  -7  -5 3263.12 706.276   7
   1  -7  -4 11913.4 1319.63   5
   1  -7  -4 10062.1 1064.98   7
   1  -7  -3 1296.29 679.982   5
   1  -7  -3 1546.98 613.257   7
   1  -7  -2 11806.2 1170.52   5
   1  -7  -2 10886.6 1029.93   7
   1  -7  -1-232.134 593.272   5
   1  -7  -1 428.322 559.692   7
   1  -7   0 19654.1 1427.10   5
   1  -7   0 21359.0 1362.67   7
   1  -7   1 3746.68 779.379   7
   1  -7   1 2488.60 771.983   5
   1  -7   2 36098.8 1826.71   5
   1  -7   2 35133.2 1666.02   7
   1  -7   3 15271.9 1274.43   5
   1  -7   3 15416.2 1206.96   7
   1  -7   4 48344.4 2058.51   5
   1  -7   4 48050.3 1954.48   7
   1  -7   5 30469.2 1640.77   7
   1  -7   5 23168.5 1200.11   4
   1  -7   6 16503.7 1015.41   4
   1  -7   6 22167.4 1483.30   7
   1  -7   7 31710.4 1300.99   6
   1  -7   7 34023.3 1743.76   7
   1  -7   7 30797.0 1307.55   4
   1  -7   8 840.522 502.436   4
   1  -7   8 607.708 661.960   7
   1  -7   9 11293.5 1140.46   7
   1  -7   9 11934.8 939.154   4
   1  -7  10 4229.15 678.543   4
   1  -7  10 4497.14 804.489   7
   1  -7  11 10843.1 973.801   4
   1  -7  11 10454.6 1049.48   7
   1  -7  12 741.453 558.459   4
   1  -7  12 390.373 570.707   7
   1  -7  13 7760.10 975.871   7
   1  -7  13 8136.13 970.379   4
   1  -7  14 1769.08 672.993   4
   1  -7  14 1069.99 621.862   7
   1  -7  15 2671.09 772.981   4
   1  -7  15 3089.17 777.997   7
   1  -7  16 2903.88 815.411   4
   1  -6 -14 5459.21 1292.05   2
   1  -6 -13 3343.52 1166.52   2
   1  -6 -12 7670.98 1097.98   5
   1  -6 -12 11061.1 1467.15   2
   1  -6 -11 2966.29 1063.43   2
   1  -6 -11 653.241 684.658   5
   1  -6 -10 11524.0 1256.77   5
   1  -6 -10 14260.9 1522.64   2
   1  -6  -9 6433.21 1163.38   2
   1  -6  -9 4263.86 892.523   5
   1  -6  -9 4300.78 681.346   7
   1  -6  -8 3991.88 823.604   5
   1  -6  -8 3599.01 636.412   7
   1  -6  -7 5421.81 921.068   5
   1  -6  -7 4912.31 735.668   7
   1  -6  -6 15851.8 1284.58   5
   1  -6  -6 14170.8 1030.33   7
   1  -6  -5 8099.36 997.652   5
   1  -6  -5 7960.87 862.447   7
   1  -6  -4 4660.34 783.557   5
   1  -6  -4 4632.17 682.220   7
   1  -6  -3 21784.5 1383.84   5
   1  -6  -3 20858.6 1214.22   7
   1  -6  -2 2345.91 645.909   5
   1  -6  -2 2637.99 584.947   7
   1  -6  -1 25569.9 1473.96   5
   1  -6  -1 27299.8 1370.97   7
   1  -6   0 540.927 574.291   5
   1  -6   0 745.087 533.041   7
   1  -6   1 30792.8 1585.91   5
   1  -6   1 32182.9 1470.56   7
   1  -6   2 9761.35 1017.39   5
   1  -6   2 10697.6 982.291   7
   1  -6   3 56652.7 2005.39   5
   1  -6   3 55393.5 1889.26   7
   1  -6   4 26683.0 1415.14   7
   1  -6   5 43131.0 1373.37   4
   1  -6   5 47203.4 1850.16   7
   1  -6   6 28105.7 1480.42   7
   1  -6   6 25538.5 1097.00   4
   1  -6   7 9245.72 653.453   6
   1  -6   7 9539.43 990.053   7
   1  -6   7 9616.06 741.324   4
   1  -6   8 17192.7 1215.51   7
   1  -6   8 19054.1 1013.02   4
   1  -6   9 1485.83 290.109   3
   1  -6   9 2200.02 566.866   4
   1  -6   9 2156.04 663.196   7
   1  -6  10 11001.4 911.383   4
   1  -6  10 10346.8 994.609   7
   1  -6  11 3090.53 618.849   4
   1  -6  11 2811.31 650.685   7
   1  -6  12 12159.7 1051.27   4
   1  -6  12 12206.7 1037.31   7
   1  -6  13-240.395 534.229   4
   1  -6  13 44.6976 499.490   7
   1  -6  14 8968.78 939.243   7
   1  -6  14 9697.55 1076.19   4
   1  -6  15-9.08048 582.471   4
   1  -6  15-27.5326 493.464   7
   1  -5 -16 1455.54 993.463   3
   1  -5 -15 1913.84 939.650   3
   1  -5 -15 2687.32 1117.46   2
   1  -5 -14 892.486 845.298   3
   1  -5 -14 1516.87 987.115   2
   1  -5 -13 10522.9 1401.48   2
   1  -5 -12 443.504 622.566   5
   1  -5 -12 1398.07 917.522   2
   1  -5 -11 19543.2 1418.50   5
   1  -5 -11 21288.3 1741.58   2
   1  -5 -10 40.8353 556.414   5
   1  -5 -10 870.400 813.510   2
   1  -5  -9 6916.65 912.672   5
   1  -5  -9 8604.32 1187.09   2
   1  -5  -9 5994.35 632.739   7
   1  -5  -8 3810.88 775.103   5
   1  -5  -8 5126.30 1024.54   2
   1  -5  -8 3844.34 605.724   7
   1  -5  -7 25590.6 1438.29   5
   1  -5  -7 26922.6 1590.75   2
   1  -5  -7 24811.7 1170.38   7
   1  -5  -6 5423.23 671.638   7
   1  -5  -6 5875.52 816.246   5
   1  -5  -6 6924.11 989.099   2
   1  -5  -5 21757.7 1284.46   5
   1  -5  -5 19847.2 1065.63   7
   1  -5  -4 26227.2 1371.74   5
   1  -5  -4 21331.1 1106.42   7
   1  -5  -3 9431.65 883.929   5
   1  -5  -3 8993.31 781.930   7
   1  -5  -2 10283.7 904.854   5
   1  -5  -2 9228.68 777.870   7
   1  -5  -1 11397.0 971.570   5
   1  -5  -1 13249.3 912.660   7
   1  -5   0 23300.5 1285.22   5
   1  -5   1 3489.95 692.055   5
   1  -5   1 4234.56 665.167   7
   1  -5   2 31167.9 1383.97   5
   1  -5   2 31386.2 1300.14   7
   1  -5   3 12292.3 962.605   5
   1  -5   3 11931.5 916.875   7
   1  -5   4 37147.4 1492.16   7
   1  -5   4 32199.5 1072.57   4
   1  -5   5 7859.81 628.081   4
   1  -5   5 10498.8 926.418   7
   1  -5   6 31236.3 946.974   6
   1  -5   6 30965.0 1359.83   7
   1  -5   6 31325.6 1107.54   4
   1  -5   7 16944.1 1076.13   7
   1  -5   7 17209.3 892.409   4
   1  -5   8 5233.02 698.069   7
   1  -5   8 4348.43 316.944   3
   1  -5   8 6384.21 638.815   4
   1  -5   9 17931.6 1116.96   7
   1  -5   9 18094.4 1029.26   4
   1  -5  10 4487.38 654.237   4
   1  -5  10 4781.04 680.909   7
   1  -5  11 9107.69 844.718   7
   1  -5  11 9040.35 890.174   4
   1  -5  12 775.839 534.705   4
   1  -5  12 431.961 465.538   7
   1  -5  13 24427.7 1473.21   4
   1  -5  13 21727.2 1198.85   7
   1  -5  14 3084.28 730.113   4
   1  -5  14 1866.24 532.112   7
   1  -5  15 8838.52 835.115   7
   1  -4 -17 3847.90 1155.07   3
   1  -4 -16 1576.49 1025.38   2
   1  -4 -16 2248.07 988.914   3
   1  -4 -15 2728.51 965.227   3
   1  -4 -15 2890.74 1051.08   2
   1  -4 -14 3021.92 906.354   3
   1  -4 -14 2563.79 972.484   2
   1  -4 -13 1124.26 596.422   5
   1  -4 -13-197.814 921.295   2
   1  -4 -12 10835.4 1025.85   5
   1  -4 -12 9248.59 1231.18   2
   1  -4 -11 2072.64 597.237   5
   1  -4 -11 1275.94 795.851   2
   1  -4 -10 8112.89 1082.44   2
   1  -4 -10 7688.16 895.849   5
   1  -4 -10 6563.85 514.537   7
   1  -4  -9-134.557 443.179   5
   1  -4  -9-28.0589 665.538   2
   1  -4  -9-104.048 294.102   7
   1  -4  -8 12528.0 1003.44   5
   1  -4  -8 12237.2 1181.74   2
   1  -4  -8 11399.9 719.656   7
   1  -4  -7 5805.10 735.061   5
   1  -4  -7 5912.65 867.828   2
   1  -4  -7 4873.49 545.352   7
   1  -4  -6 21094.4 1156.79   5
   1  -4  -6 20525.0 1312.13   2
   1  -4  -6 19361.1 945.350   7
   1  -4  -5 19650.4 1090.58   5
   1  -4  -5 19401.5 1212.39   2
   1  -4  -5 17587.6 895.064   7
   1  -4  -4 8423.75 766.069   5
   1  -4  -4 9661.87 889.497   2
   1  -4  -4 8686.06 681.012   7
   1  -4  -3 25445.5 1194.77   5
   1  -4  -3 23242.2 1018.03   7
   1  -4  -2 27611.4 1223.46   5
   1  -4  -2 25678.1 1044.49   7
   1  -4  -1 32820.2 1350.45   5
   1  -4  -1 30659.8 1157.70   7
   1  -4   0 2041.99 584.128   5
   1  -4   0 2836.14 563.043   7
   1  -4   1 86175.1 2017.28   5
   1  -4   1 84202.2 1851.80   7
   1  -4   2 19143.3 1062.56   5
   1  -4   2 19143.9 981.299   1
   1  -4   2 21893.9 1046.33   7
   1  -4   3 61290.6 1712.85   1
   1  -4   3 62018.6 1663.27   7
   1  -4   4 814.470 347.012   4
   1  -4   4 3902.45 684.920   7
   1  -4   5 59349.7 1662.01   7
   1  -4   5 59616.2 1337.39   4
   1  -4   6 1811.39 383.498   4
   1  -4   6 1336.65 459.373   7
   1  -4   7 51997.1 1600.42   7
   1  -4   7 52715.4 1431.86   4
   1  -4   8 6327.20 679.665   7
   1  -4   8 6481.34 638.727   4
   1  -4   9 22251.1 1074.24   7
   1  -4   9 22153.1 1114.79   4
   1  -4  10 4928.69 593.321   7
   1  -4  10 4466.80 626.446   4
   1  -4  11 4126.45 577.605   7
   1  -4  11 4674.05 726.397   4
   1  -4  12 10662.4 778.856   7
   1  -4  12 12284.6 1024.81   4
   1  -4  13 2533.91 541.920   7
   1  -4  13 2371.58 719.108   4
   1  -4  14 12356.2 845.510   7
   1  -3 -19 515.519 964.169   3
   1  -3 -18 3598.54 1147.11   3
   1  -3 -17-197.960 1008.00   2
   1  -3 -17 2216.11 986.603   3
   1  -3 -17 1405.52 807.566   1
   1  -3 -16 1351.50 914.041   2
   1  -3 -16 3279.52 867.571   1
   1  -3 -16 3926.33 1011.15   3
   1  -3 -15 911.568 908.773   2
   1  -3 -15 3511.77 922.502   3
   1  -3 -14-1233.32 1000.34   2
   1  -3 -14 224.563 683.113   3
   1  -3 -13 8878.29 863.584   5
   1  -3 -13 6778.91 1067.67   2
   1  -3 -13 8106.53 1098.59   3
   1  -3 -12 5108.36 688.941   5
   1  -3 -12 5263.15 917.474   2
   1  -3 -11 8367.24 1030.71   2
   1  -3 -11 9077.34 815.988   5
   1  -3 -10 1605.99 680.822   2
   1  -3 -10 1505.67 468.080   5
   1  -3 -10 1645.05 230.034   7
   1  -3  -9 26438.6 1526.10   2
   1  -3  -9 27532.4 1227.19   5
   1  -3  -9 24996.8 749.815   7
   1  -3  -8 628.259 411.744   5
   1  -3  -8 55.6880 254.731   7
   1  -3  -7 36175.6 1613.45   2
   1  -3  -7 37397.6 1360.18   5
   1  -3  -7 31367.4 962.109   7
   1  -3  -6 614.231 505.981   2
   1  -3  -6 1572.72 441.336   5
   1  -3  -6 919.486 335.950   7
   1  -3  -5 48692.4 1680.53   2
   1  -3  -5 48970.0 1462.74   5
   1  -3  -5 47302.1 1231.41   7
   1  -3  -4 14917.3 845.288   5
   1  -3  -4 15325.2 970.078   2
   1  -3  -4 14116.0 709.661   7
   1  -3  -3 76502.1 1766.39   5
   1  -3  -3 78714.9 1847.93   2
   1  -3  -3 73014.1 1496.08   7
   1  -3  -2 4502.41 565.816   2
   1  -3  -2 2745.00 459.750   5
   1  -3  -2 3095.30 424.892   7
   1  -3  -1 26717.8 1072.59   5
   1  -3  -1 27214.2 967.141   7
   1  -3   0 10232.7 699.652   5
   1  -3   0 10606.7 642.193   7
   1  -3   1 2743.42 468.616   5
   1  -3   1 3295.70 461.481   7
   1  -3   2 8834.85 611.668   1
   1  -3   2 8280.20 620.664   7
   1  -3   3 297.546 319.002   1
   1  -3   3-66.6016 226.225   4
   1  -3   3 430.447 359.937   7
   1  -3   4 36354.5 1180.47   1
   1  -3   4 36381.6 1148.02   7
   1  -3   4 35228.3 877.424   4
   1  -3   5 12553.4 728.923   7
   1  -3   5 11652.5 590.972   4
   1  -3   6 39453.2 1217.20   7
   1  -3   6 40142.3 1152.21   4
   1  -3   7-35.6592 319.229   4
   1  -3   7 85.0498 330.823   7
   1  -3   8 65201.3 1548.10   7
   1  -3   8 65743.1 1727.20   4
   1  -3   9 25436.0 984.052   7
   1  -3   9 26221.9 1219.75   4
   1  -3  10 10419.7 875.462   4
   1  -3  10 8874.67 651.820   7
   1  -3  11 10118.3 658.703   7
   1  -3  11 11754.7 942.584   4
   1  -3  12 3972.14 482.127   7
   1  -3  13 12277.1 717.479   7
   1  -3  14 4225.18 485.891   7
   1  -2 -20 1113.59 986.790   3
   1  -2 -19 5113.15 1246.39   3
   1  -2 -18 539.678 867.504   3
   1  -2 -18 947.701 835.063   1
   1  -2 -18-1415.89 1070.41   2
   1  -2 -17 5275.35 1116.02   2
   1  -2 -17 7125.22 1218.25   3
   1  -2 -17 7261.31 1149.09   1
   1  -2 -16 2052.64 867.723   3
   1  -2 -16 1713.61 746.063   1
   1  -2 -15 1980.46 825.405   3
   1  -2 -15 2162.45 700.901   1
   1  -2 -14 1788.61 665.843   1
   1  -2 -14 2332.21 760.999   3
   1  -2 -13 5993.67 937.784   3
   1  -2 -13 6643.88 678.087   5
   1  -2 -12 1838.24 625.213   3
   1  -2 -12 2156.90 471.054   5
   1  -2 -11 7480.89 660.503   5
   1  -2 -11 8750.55 941.305   3
   1  -2 -10 11015.4 730.159   5
   1  -2  -9 3952.94 499.634   5
   1  -2  -9 2431.57 159.342   7
   1  -2  -8 35336.4 1160.80   5
   1  -2  -8 29084.6 636.663   7
   1  -2  -7 1072.98 353.903   5
   1  -2  -7 863.637 201.423   7
   1  -2  -6 39925.9 1150.44   5
   1  -2  -6 35617.1 784.026   7
   1  -2  -5 562.593 298.157   5
   1  -2  -5 324.265 224.057   7
   1  -2  -4 56666.5 1303.16   5
   1  -2  -4 52436.9 1040.02   7
   1  -2  -4 53049.7 1311.99   4
   1  -2  -3 18075.1 810.753   2
   1  -2  -3 17862.8 751.207   5
   1  -2  -3 16702.0 621.402   7
   1  -2  -2 69152.4 1371.91   5
   1  -2  -2 66462.4 1351.32   2
   1  -2  -2 64603.2 1184.31   7
   1  -2  -1 7240.34 567.518   5
   1  -2  -1 8504.51 579.055   7
   1  -2   0 79631.5 1343.41   7
   1  -2   0 74982.4 1402.84   5
   1  -2   1 30876.2 879.503   7
   1  -2   1 25839.5 757.133   1
   1  -2   2 11386.3 540.086   1
   1  -2   2 12101.9 595.677   7
   1  -2   2 10002.8 343.560   4
   1  -2   3 29687.9 924.296   1
   1  -2   3 26363.2 636.000   4
   1  -2   3 28696.2 885.838   7
   1  -2   4 15419.8 664.646   7
   1  -2   4 15452.8 591.346   4
   1  -2   4 16235.2 751.157   1
   1  -2   5 50896.8 1415.23   1
   1  -2   5 47655.9 1109.10   7
   1  -2   5 48684.2 1163.97   4
   1  -2   6 4359.21 418.510   7
   1  -2   6 4981.56 500.012   4
   1  -2   7 69837.3 1672.30   4
   1  -2   7 69188.1 1341.47   7
   1  -2   8 5550.38 593.592   4
   1  -2   8 6048.57 467.003   7
   1  -2   9 24220.3 840.031   7
   1  -2  10 13622.5 628.367   7
   1  -2  11 12211.2 609.698   7
   1  -2  12 4250.97 398.865   7
   1  -2  13 7204.83 456.395   7
   1  -1 -19 74.6477 794.443   1
   1  -1 -19 504.271 846.801   3
   1  -1 -18 6662.35 1211.55   3
   1  -1 -18 8615.41 1265.95   1
   1  -1 -17 1250.03 784.890   1
   1  -1 -17 462.256 718.823   3
   1  -1 -16 9724.96 1204.99   3
   1  -1 -16 9640.97 1189.25   1
   1  -1 -15-340.417 621.493   1
   1  -1 -15 188.230 631.355   3
   1  -1 -14 6594.65 968.916   3
   1  -1 -14 6512.63 909.401   1
   1  -1 -13 430.063 313.547   5
   1  -1 -13 434.705 539.934   3
   1  -1 -13 198.370 549.342   1
   1  -1 -12 11422.0 646.067   5
   1  -1 -12 12399.3 1087.49   3
   1  -1 -12 11513.2 1016.78   1
   1  -1 -11 3972.53 423.285   5
   1  -1 -11 3778.22 686.586   3
   1  -1 -10 10024.0 917.705   3
   1  -1 -10 10511.9 582.590   5
   1  -1  -9 26012.0 830.043   5
   1  -1  -9 23921.9 1237.12   3
   1  -1  -8 713.169 412.797   3
   1  -1  -8 1241.68 314.485   5
   1  -1  -7 20762.4 715.464   5
   1  -1  -7 20861.9 1043.50   3
   1  -1  -6 1549.71 279.824   5
   1  -1  -6 1001.09 129.155   7
   1  -1  -5 35461.0 844.857   5
   1  -1  -5 32301.5 565.397   7
   1  -1  -5 35112.8 1122.79   4
   1  -1  -4 8292.86 436.003   5
   1  -1  -4 7653.85 314.759   7
   1  -1  -4 8154.04 527.326   4
   1  -1  -3 95197.5 1266.16   5
   1  -1  -3 90785.3 1009.70   7
   1  -1  -3 96269.5 1445.97   4
   1  -1  -2 23737.9 635.404   5
   1  -1  -2 23231.8 536.446   7
   1  -1  -2 23261.2 612.580   4
   1  -1  -1 46777.6 761.848   7
   1  -1  -1 43030.4 619.792   4
   1  -1   0 75802.7 1005.29   7
   1  -1   1 108643. 1249.97   7
   1  -1   1 114094. 1138.63   1
   1  -1   2 27823.7 652.646   7
   1  -1   3 2792.43 289.204   7
   1  -1   4 45111.2 874.274   7
   1  -1   5 443.004 230.368   7
   1  -1   6 35826.0 823.984   7
   1  -1   7 517.652 241.619   7
   1  -1   8 46354.3 944.162   7
   1  -1   9 3521.03 320.230   7
   1  -1  10 28394.5 726.288   7
   1  -1  11 4461.29 295.846   7
   1  -1  12 9131.24 342.610   7
   1   0 -21 285.016 938.891   1
   1   0 -20 3751.92 1055.95   1
   1   0 -19 1287.82 895.624   1
   1   0 -19 1181.64 878.915   3
   1   0 -18 2531.18 892.389   1
   1   0 -18 2208.23 875.391   3
   1   0 -17 3084.32 901.081   1
   1   0 -17 2070.53 785.133   3
   1   0 -16 435.038 681.521   1
   1   0 -16 59.1373 602.237   3
   1   0 -15 4048.24 869.189   1
   1   0 -15 4314.25 833.391   3
   1   0 -14 779.507 595.744   1
   1   0 -14 1323.68 628.830   3
   1   0 -13 433.611 516.956   1
   1   0 -13 860.046 536.816   3
   1   0 -12 17766.8 1190.64   3
   1   0 -12 16363.2 1152.93   1
   1   0 -11 3089.95 588.904   1
   1   0 -11 2585.33 237.553   5
   1   0 -11 3079.48 613.754   3
   1   0 -10 52646.8 1773.22   3
   1   0 -10 51317.1 1753.98   1
   1   0  -9 6794.39 323.274   5
   1   0  -9 7466.89 727.704   3
   1   0  -9 7064.06 694.611   1
   1   0  -8 56852.9 802.753   5
   1   0  -8 62433.0 1718.24   3
   1   0  -8 61101.9 1678.32   1
   1   0  -7 13371.8 379.728   5
   1   0  -7 15057.7 839.559   3
   1   0  -7 14594.6 785.973   1
   1   0  -6 101581. 1912.37   3
   1   0  -6 100430. 1796.76   1
   1   0  -6 101713. 1986.55   4
   1   0  -5 57889.4 1228.64   1
   1   0  -5 58092.0 1355.20   3
   1   0  -5 60990.3 1424.91   4
   1   0  -4 239701. 2513.16   3
   1   0  -4 246599. 2216.92   1
   1   0  -4 251586. 2565.44   4
   1   0  -3 11286.3 529.401   3
   1   0  -3 11547.6 436.122   1
   1   0  -3 11130.4 321.341   7
   1   0  -3 11861.7 544.052   4
   1   0  -2 86347.6 882.561   7
   1   0  -2 86201.9 898.800   1
   1   0  -2 86058.2 1214.31   3
   1   0  -2 86813.8 1150.26   4
   1   0   2 16267.1 441.175   7
   1   0   3 2957.07 256.310   7
   1   0   4 2668.09 262.771   7
   1   0   5 14895.9 466.614   7
   1   0   6 334.107 191.615   7
   1   0   7 38293.9 710.697   7
   1   1 -21 1269.18 1034.06   1
   1   1 -20 2443.69 1036.59   1
   1   1 -19-385.379 917.149   1
   1   1 -18 6402.60 1065.98   3
   1   1 -18 4664.35 1058.03   1
   1   1 -17 953.030 732.516   1
   1   1 -17-152.737 704.131   3
   1   1 -16 24173.4 1694.38   1
   1   1 -16 23602.5 1587.80   3
   1   1 -15 548.103 676.514   1
   1   1 -15 57.7538 595.953   3
   1   1 -14 17260.4 1341.23   1
   1   1 -14 17408.0 1272.65   3
   1   1 -13 3256.65 748.626   1
   1   1 -13 3547.90 680.199   3
   1   1 -12 19733.9 1260.67   1
   1   1 -12 19223.5 1171.85   3
   1   1 -11 9362.78 912.441   1
   1   1 -11 9888.75 863.681   3
   1   1 -10 28900.4 1359.48   1
   1   1 -10 30839.8 1296.70   3
   1   1  -9 18919.6 1060.46   1
   1   1  -9 18809.0 984.235   3
   1   1  -8 70025.9 1829.30   1
   1   1  -8 72337.5 1748.96   3
   1   1  -7 8822.86 663.701   1
   1   1  -7 8563.55 633.780   3
   1   1  -6 16634.5 798.767   1
   1   1  -6 18538.3 813.441   3
   1   1  -6 18005.4 875.151   4
   1   1  -5 27653.2 949.869   1
   1   1  -5 26418.8 892.677   3
   1   1  -5 27896.4 1004.10   4
   1   1  -4 27994.2 896.269   1
   1   1  -4 25232.6 814.584   3
   1   1  -4 27123.5 944.295   4
   1   1  -3 12632.6 330.263   5
   1   1  -3 14718.6 632.536   4
   1   1  -3 14118.2 575.673   1
   1   1  -2 4516.67 256.071   5
   1   1  -1 96841.5 1265.41   6
   1   1  -1 101496. 1153.52   5
   1   1   0 23461.2 646.236   5
   1   1   1 79848.3 1195.53   2
   1   1   1 81883.8 1228.61   5
   1   1   2 18550.1 684.617   2
   1   1   2 18566.6 670.725   5
   1   1   3 188.416 248.125   5
   1   2 -21 1552.32 1069.08   1
   1   2 -20 2058.30 1055.52   1
   1   2 -19 820.111 959.558   1
   1   2 -18 1391.35 840.436   1
   1   2 -17 7001.72 1000.25   3
   1   2 -17 6784.34 1100.09   1
   1   2 -16 2733.14 746.267   3
   1   2 -16 2114.01 768.451   1
   1   2 -15 11863.0 1256.33   1
   1   2 -15 12560.9 1117.75   3
   1   2 -14-327.655 534.938   3
   1   2 -14-812.005 736.107   1
   1   2 -13 11325.0 1094.48   1
   1   2 -13 12106.5 998.273   3
   1   2 -12 1526.54 504.464   3
   1   2 -12 366.279 562.268   1
   1   2 -11 23137.2 1344.64   1
   1   2 -11 24268.0 1177.23   3
   1   2 -10 17264.6 1109.63   1
   1   2 -10 19095.1 1003.58   3
   1   2  -9 28585.4 1365.02   1
   1   2  -9 30419.8 1183.20   3
   1   2  -8 6860.65 696.968   1
   1   2  -8 6848.09 589.122   3
   1   2  -7 31515.2 573.985   5
   1   2  -7 38367.5 1416.40   1
   1   2  -6 14197.0 429.683   5
   1   2  -6 15527.7 894.972   1
   1   2  -6 17575.6 952.938   4
   1   2  -5 34189.0 706.626   5
   1   2  -5 32063.1 1129.39   1
   1   2  -5 35071.2 1176.17   4
   1   2  -4 6112.96 474.948   6
   1   2  -4 5787.99 348.503   5
   1   2  -3 5550.81 468.592   6
   1   2  -3 5072.17 365.887   5
   1   2  -2 63770.9 1134.34   5
   1   2  -1 8081.23 538.414   5
   1   2   0 82353.4 1393.84   5
   1   2   1 707.029 290.822   5
   1   2   2 12290.2 708.657   2
   1   2   2 12250.9 653.414   5
   1   2   3 16518.9 848.942   2
   1   2   3 18029.1 812.968   5
   1   2   4 15764.1 806.887   5
   1   2   5 20446.8 952.267   5
   1   3 -21 5684.42 1356.99   1
   1   3 -20 1472.17 1019.28   1
   1   3 -19 3790.05 1079.88   1
   1   3 -18 4664.19 1084.61   1
   1   3 -17 6140.18 1113.80   1
   1   3 -16 5352.13 1010.43   1
   1   3 -15 3987.70 912.510   1
   1   3 -14 8287.96 1065.90   1
   1   3 -13 393.591 597.924   1
   1   3 -12 17745.2 1346.95   1
   1   3 -11 1049.39 149.295   5
   1   3 -11 1593.20 585.637   1
   1   3 -10 10197.7 427.256   5
   1   3 -10 12813.5 1096.91   1
   1   3  -9 1892.25 253.964   5
   1   3  -9 2893.15 633.737   1
   1   3  -8 11780.4 510.285   5
   1   3  -8 13240.9 974.200   1
   1   3  -7 3328.26 475.400   6
   1   3  -7 4120.73 624.295   1
   1   3  -7 2407.08 297.145   5
   1   3  -6 30265.1 1057.94   6
   1   3  -6 29312.5 856.570   5
   1   3  -5 63299.2 1419.50   6
   1   3  -5 63287.2 1270.34   5
   1   3  -4 6385.74 498.174   5
   1   3  -3 17819.6 762.958   5
   1   3  -2 14199.1 768.998   5
   1   3  -1 111237. 1926.24   5
   1   3   0 16356.6 824.993   5
   1   3   1 81504.3 1714.11   5
   1   3   2-210.532 342.834   5
   1   4 -21 923.025 1082.58   1
   1   4 -20 4029.86 1202.58   1
   1   4 -19 715.989 942.239   1
   1   4 -18 2168.68 995.013   1
   1   4 -17 801.350 835.547   1
   1   4 -16 3261.54 1005.88   1
   1   4 -15 5391.10 1078.62   1
   1   4 -14 2348.21 848.998   1
   1   4 -13 13716.1 1338.26   1
   1   4 -12 123.982 596.911   1
   1   4 -12 268.589 218.712   5
   1   4 -11 29452.3 1221.44   6
   1   4 -11 28384.2 867.856   5
   1   4 -11 28903.0 1646.48   1
   1   4 -10 2967.41 542.643   6
   1   4 -10 2821.36 701.779   1
   1   4 -10 2274.82 339.031   5
   1   4  -9 27985.3 1134.18   6
   1   4  -9 25513.1 897.402   5
   1   4  -9 28466.5 1496.17   1
   1   4  -8 4644.90 551.652   6
   1   4  -8 4369.54 440.570   5
   1   4  -7 54412.4 1353.51   5
   1   4  -6 29209.4 1028.50   5
   1   4  -5 52031.0 1381.75   5
   1   4  -4 26218.3 1047.15   5
   1   5 -20 3099.65 1200.52   1
   1   5 -19 6699.12 1314.91   1
   1   5 -18 2090.26 1029.05   1
   1   5 -17 6449.34 1206.21   1
   1   5 -16 4710.14 1105.23   1
   1   5 -15 8878.95 1281.11   1
   1   5 -14 14991.0 1011.33   6
   1   5 -14 15853.7 1504.08   1
   1   5 -13 11501.3 924.567   6
   1   5 -13 13425.2 1426.89   1
   1   5 -12 21314.4 1100.15   6
   1   5 -12 21785.6 1601.04   1
   1   5 -11 5478.82 554.137   5
   1   5 -11 6627.50 717.395   6
   1   6 -19 3621.80 1242.48   1
   1   6 -18 11262.0 1632.26   1
   1   6 -17 2888.72 1151.65   1
   2 -11  -5 3297.54 972.976   7
   2 -11  -4 2472.07 913.007   7
   2 -11  -3 4100.50 1064.43   7
   2 -11  -2 1045.27 871.555   7
   2 -11  -1 5401.07 1142.70   7
   2 -11   0-513.126 823.432   7
   2 -11   1 4288.81 1052.47   7
   2 -11   2-106.252 810.021   7
   2 -11   3 5594.86 1116.65   7
   2 -11   4 744.617 849.980   7
   2 -11   5 12634.1 1475.09   7
   2 -11   6 2342.33 985.634   7
   2 -11   7 7622.12 1326.05   7
   2 -11   8 2117.20 972.582   7
   2 -11   9 2053.34 968.012   7
   2 -11  10 1731.96 903.836   7
   2 -11  11 1426.56 918.413   7
   2 -11  12 4158.70 1056.73   7
   2 -11  13 225.824 859.231   7
   2 -11  14 4658.21 1146.55   7
   2 -10  -6-284.019 706.764   7
   2 -10  -5 3299.19 890.186   7
   2 -10  -4 788.030 782.187   7
   2 -10  -3 3543.96 923.093   7
   2 -10  -2 2326.23 856.696   7
   2 -10  -1-44.3582 703.982   7
   2 -10   0 5068.73 1041.09   7
   2 -10   1 873.200 807.309   7
   2 -10   2 12881.3 1407.42   7
   2 -10   3 3408.74 993.719   7
   2 -10   4 11874.5 1352.84   7
   2 -10   5 4638.06 1063.78   7
   2 -10   6 19665.5 1697.51   7
   2 -10   7 3728.64 1038.62   7
   2 -10   8 10521.0 1364.58   7
   2 -10   9 2813.29 957.936   7
   2 -10  10 6769.75 1178.19   7
   2 -10  11 3382.55 994.568   7
   2 -10  12 3987.60 1023.10   7
   2 -10  13 5626.33 1106.73   7
   2 -10  14 2048.34 955.678   7
   2 -10  15 3571.47 982.831   7
   2 -10  16-85.7884 763.143   7
   2  -9  -8 4353.48 1121.88   5
   2  -9  -7 1016.81 848.496   5
   2  -9  -7 304.959 644.908   7
   2  -9  -6 7135.55 1233.59   5
   2  -9  -6 6536.91 1014.10   7
   2  -9  -5 224.138 758.941   5
   2  -9  -5 193.305 636.418   7
   2  -9  -4 5723.06 1111.99   5
   2  -9  -4 4086.88 886.368   7
   2  -9  -3 1373.92 834.792   5
   2  -9  -3 853.469 700.825   7
   2  -9  -2 6710.45 1175.39   5
   2  -9  -2 5303.89 943.736   7
   2  -9  -1 1962.94 806.878   7
   2  -9   0 1507.96 785.812   7
   2  -9   1 15808.7 1444.85   7
   2  -9   2 11557.1 1278.41   7
   2  -9   3 17600.5 1486.32   7
   2  -9   4 4111.84 945.272   7
   2  -9   5 14829.0 1420.31   7
   2  -9   6 3364.79 926.895   7
   2  -9   7 12332.6 1350.44   7
   2  -9   8 3070.87 930.407   7
   2  -9   9 9107.23 1214.07   7
   2  -9  10 3576.24 936.722   7
   2  -9  11 10214.6 1277.03   7
   2  -9  12 5977.99 1050.51   7
   2  -9  13 4849.89 1016.68   7
   2  -9  14 9730.26 1261.12   7
   2  -9  15 466.884 761.614   7
   2  -9  16 5348.02 1069.96   7
   2  -8 -10 2776.87 949.702   5
   2  -8  -9 1754.92 884.058   5
   2  -8  -8 1267.45 817.637   5
   2  -8  -7 2289.04 909.790   5
   2  -8  -7 1998.73 711.868   7
   2  -8  -6 1558.91 811.615   5
   2  -8  -6 363.194 581.924   7
   2  -8  -5 1561.84 824.351   5
   2  -8  -5 805.294 637.245   7
   2  -8  -4 2003.52 706.765   7
   2  -8  -4 3208.12 892.159   5
   2  -8  -3 6682.60 1133.53   5
   2  -8  -3 4773.57 870.817   7
   2  -8  -2 8494.46 1200.53   5
   2  -8  -2 7550.90 1037.47   7
   2  -8  -1 5308.12 1057.40   5
   2  -8  -1 3758.31 922.256   7
   2  -8   0 36239.2 1916.20   7
   2  -8   1 28569.2 1764.16   7
   2  -8   2 77934.3 2711.49   7
   2  -8   3 31647.3 1816.33   7
   2  -8   4 60249.5 2423.86   7
   2  -8   5 16042.6 1420.04   7
   2  -8   5 3923.45 711.659   4
   2  -8   6 29263.7 1798.59   7
   2  -8   6 19807.2 968.493   4
   2  -8   7 10080.0 1204.61   7
   2  -8   7 9416.26 753.880   4
   2  -8   8 21490.0 1557.49   7
   2  -8   8 21335.9 1053.77   4
   2  -8   9 1386.14 507.116   4
   2  -8   9 1229.71 745.227   7
   2  -8  10 15480.3 1390.64   7
   2  -8  10 15219.2 1013.02   4
   2  -8  11 1117.60 536.625   4
   2  -8  11 856.816 693.608   7
   2  -8  12 6125.99 970.419   7
   2  -8  12 6892.67 851.954   4
   2  -8  13 169.467 555.228   4
   2  -8  13 724.997 720.241   7
   2  -8  14 621.233 705.983   7
   2  -8  15 3939.22 897.265   7
   2  -8  16-205.668 662.257   7
   2  -7 -13 6588.33 1357.47   2
   2  -7 -12 139.061 851.260   3
   2  -7 -11 1175.33 806.996   5
   2  -7 -10 5241.04 1013.34   5
   2  -7  -9 1663.90 799.523   5
   2  -7  -8 12214.6 1329.59   5
   2  -7  -8 11194.8 1028.07   7
   2  -7  -7 948.987 709.412   5
   2  -7  -7 637.781 547.805   7
   2  -7  -6 18198.6 1469.93   5
   2  -7  -6 15566.6 1180.79   7
   2  -7  -5 1284.31 715.378   5
   2  -7  -5 1220.67 605.431   7
   2  -7  -4 25300.4 1640.75   5
   2  -7  -4 23801.3 1447.91   7
   2  -7  -3 735.982 688.258   5
   2  -7  -3 988.789 616.052   7
   2  -7  -2 37014.5 1920.77   5
   2  -7  -2 35403.4 1760.57   7
   2  -7  -1 2538.13 775.809   5
   2  -7  -1 4081.16 855.469   7
   2  -7   0 50634.7 2276.90   5
   2  -7   0 52212.4 2102.54   7
   2  -7   1 14070.3 1236.73   7
   2  -7   2 39623.2 1838.97   7
   2  -7   3 14016.6 1191.45   7
   2  -7   4 8526.36 994.764   7
   2  -7   4 6811.75 641.823   4
   2  -7   5-433.195 381.510   4
   2  -7   5 1320.76 662.682   7
   2  -7   6 1722.54 438.141   4
   2  -7   6 1145.75 626.231   7
   2  -7   7 7284.78 940.743   7
   2  -7   7 7497.65 617.113   4
   2  -7   8 426.892 377.280   4
   2  -7   8 172.544 566.590   7
   2  -7   9 5260.41 835.189   7
   2  -7   9 5793.09 634.647   4
   2  -7  10 9683.85 1049.12   7
   2  -7  10 9065.07 799.050   4
   2  -7  11 6746.04 910.626   7
   2  -7  11 6320.33 741.062   4
   2  -7  12 4866.32 755.912   4
   2  -7  12 4888.34 836.293   7
   2  -7  13 4267.08 731.162   4
   2  -7  13 3616.13 803.205   7
   2  -7  14 10361.3 1092.68   7
   2  -7  15 1895.15 727.764   7
   2  -6 -14 6554.29 1352.93   2
   2  -6 -14 4390.45 1171.71   3
   2  -6 -13-105.994 800.077   3
   2  -6 -13 2201.15 1051.75   2
   2  -6 -12 5702.45 1139.31   3
   2  -6 -12 6301.07 994.861   5
   2  -6 -12 7060.76 1257.89   2
   2  -6 -11-34.5826 636.393   5
   2  -6 -11 1727.12 951.680   2
   2  -6 -10 11069.3 1199.54   5
   2  -6 -10 15718.5 1527.16   2
   2  -6  -9 7831.53 1050.43   5
   2  -6  -9 10008.5 1273.30   2
   2  -6  -9 7930.66 783.318   7
   2  -6  -8 6602.82 972.907   5
   2  -6  -8 5854.75 715.662   7
   2  -6  -7 8720.95 1050.11   5
   2  -6  -7 8226.38 832.087   7
   2  -6  -6 1123.11 597.783   5
   2  -6  -6 715.330 466.046   7
   2  -6  -5 10066.7 1032.79   5
   2  -6  -5 8709.87 852.385   7
   2  -6  -4 648.422 582.854   5
   2  -6  -4 550.928 498.696   7
   2  -6  -3 11093.4 1047.35   5
   2  -6  -3 9455.65 885.005   7
   2  -6  -2 2111.83 639.852   5
   2  -6  -2 2613.94 597.458   7
   2  -6  -1 22031.5 1397.11   5
   2  -6  -1 23354.7 1347.26   7
   2  -6   0 13250.9 1093.28   7
   2  -6   1 28509.0 1456.45   7
   2  -6   2 25736.7 1383.26   7
   2  -6   3 27725.1 1450.27   7
   2  -6   4 27343.0 1459.50   7
   2  -6   4 16252.7 735.701   4
   2  -6   5 9406.24 966.552   7
   2  -6   5 6992.28 528.707   4
   2  -6   6 27456.7 1453.58   7
   2  -6   6 26362.0 940.038   4
   2  -6   7 1626.85 301.961   6
   2  -6   7 2407.85 422.915   4
   2  -6   8 30421.5 1536.30   7
   2  -6   8 29754.7 1144.26   4
   2  -6   9 148.301 382.329   4
   2  -6   9 752.446 560.926   7
   2  -6  10 12617.1 1031.37   7
   2  -6  10 13915.5 944.455   4
   2  -6  11 278.706 455.859   4
   2  -6  11 163.468 515.058   7
   2  -6  12 12988.3 1080.00   7
   2  -6  12 13385.9 1034.64   4
   2  -6  13 221.985 525.581   7
   2  -6  14 7793.01 912.864   7
   2  -6  15 1548.21 628.452   7
   2  -5 -16 82.0564 896.177   3
   2  -5 -15 3968.23 1185.04   2
   2  -5 -15 4308.40 1151.51   3
   2  -5 -14-353.661 859.002   2
   2  -5 -14-949.266 867.716   3
   2  -5 -13 4690.07 1086.64   3
   2  -5 -13 6312.92 1179.66   2
   2  -5 -12-347.949 754.462   3
   2  -5 -12 166.561 582.729   5
   2  -5 -12 470.353 818.895   2
   2  -5 -11 13658.6 1413.94   3
   2  -5 -11 12998.2 1184.79   5
   2  -5 -11 13744.6 1432.75   2
   2  -5 -10 3650.11 794.036   5
   2  -5 -10 3910.43 970.115   2
   2  -5  -9 11295.6 1086.46   5
   2  -5  -9 11441.7 1263.50   2
   2  -5  -9 11312.6 808.306   7
   2  -5  -8 13392.3 1135.27   5
   2  -5  -8 14885.0 1324.30   2
   2  -5  -8 12375.7 840.331   7
   2  -5  -7 1217.77 565.653   5
   2  -5  -7 2079.62 774.575   2
   2  -5  -7 634.112 390.706   7
   2  -5  -6 12775.3 1060.20   5
   2  -5  -6 14092.0 1187.63   2
   2  -5  -6 10974.5 812.544   7
   2  -5  -5 3357.91 679.826   5
   2  -5  -5 2303.52 535.256   7
   2  -5  -4 17063.3 1150.69   5
   2  -5  -4 17252.0 1019.13   7
   2  -5  -3-134.457 510.155   5
   2  -5  -3-26.2429 422.980   7
   2  -5  -2 24100.6 1306.29   5
   2  -5  -2 24431.0 1210.95   7
   2  -5  -1-266.940 521.644   5
   2  -5  -1 672.465 477.776   7
   2  -5   0 45553.6 1642.39   7
   2  -5   1 10885.9 946.720   7
   2  -5   2 63658.7 1900.52   7
   2  -5   3 34674.5 1485.90   7
   2  -5   3 13691.5 641.568   4
   2  -5   4 45051.2 1655.76   7
   2  -5   4 38152.8 907.453   4
   2  -5   5 18786.0 1163.78   7
   2  -5   5 15602.2 657.860   4
   2  -5   6 9016.31 853.100   7
   2  -5   6 9127.28 573.117   4
   2  -5   7 14684.1 757.295   4
   2  -5   7 15719.0 1056.71   7
   2  -5   8 4472.75 662.610   7
   2  -5   8 4718.94 539.771   4
   2  -5   9 15136.8 911.125   4
   2  -5   9 14731.0 1014.29   7
   2  -5  10 605.644 462.384   7
   2  -5  10 899.683 437.753   4
   2  -5  11 5859.31 703.093   4
   2  -5  11 5998.31 730.645   7
   2  -5  12 1.31176 453.140   7
   2  -5  13 12117.1 964.016   7
   2  -5  14 372.833 492.682   7
   2  -5  15 9246.04 880.701   7
   2  -4 -17 1669.17 1029.98   3
   2  -4 -16 3217.87 1121.41   2
   2  -4 -16 4017.94 1097.68   3
   2  -4 -15 68.6855 956.895   2
   2  -4 -15 814.064 828.567   3
   2  -4 -14 4654.58 1082.95   2
   2  -4 -14 5313.96 1069.50   3
   2  -4 -13-1162.00 911.559   2
   2  -4 -13-26.9263 687.074   3
   2  -4 -12 18334.7 1230.47   5
   2  -4 -12 16523.6 1490.59   2
   2  -4 -12 16936.4 1516.67   3
   2  -4 -11-621.560 660.282   3
   2  -4 -11 357.897 506.615   5
   2  -4 -11-1369.16 826.893   2
   2  -4 -10 9673.77 936.634   5
   2  -4 -10 8783.77 1093.14   2
   2  -4 -10 9664.27 1108.15   3
   2  -4 -10 8623.90 604.664   7
   2  -4  -9 5408.93 737.157   5
   2  -4  -9 4291.23 807.862   2
   2  -4  -9 5060.72 510.613   7
   2  -4  -8 11412.1 954.310   5
   2  -4  -8 11867.5 1113.84   2
   2  -4  -8 11229.7 704.017   7
   2  -4  -7 10220.2 881.091   5
   2  -4  -7 10495.7 1006.69   2
   2  -4  -7 9106.30 653.433   7
   2  -4  -6 5860.84 727.419   5
   2  -4  -6 5806.94 807.699   2
   2  -4  -6 4996.94 557.041   7
   2  -4  -5 13020.4 927.354   5
   2  -4  -5 13655.2 1019.58   2
   2  -4  -5 11207.8 733.417   7
   2  -4  -4 1490.97 470.442   5
   2  -4  -4 1735.17 557.867   2
   2  -4  -4 1634.20 441.613   7
   2  -4  -3 27165.0 1250.62   5
   2  -4  -3 27950.3 1220.80   2
   2  -4  -3 24132.8 901.455   4
   2  -4  -3 24823.7 1067.49   7
   2  -4  -2 21049.4 1139.07   5
   2  -4  -2 21971.7 1056.21   7
   2  -4  -1 22374.0 1052.29   7
   2  -4   0 10148.3 852.164   7
   2  -4   1 71770.1 1625.99   1
   2  -4   1 67969.2 1758.13   7
   2  -4   2 16915.7 930.990   1
   2  -4   2 20512.0 1083.26   7
   2  -4   3 32158.9 1166.88   1
   2  -4   3 34062.8 1321.32   7
   2  -4   4 25194.2 1173.30   7
   2  -4   4 21288.5 624.703   4
   2  -4   5 73490.8 1867.29   7
   2  -4   5 74111.6 1298.77   4
   2  -4   6 7971.76 763.199   7
   2  -4   6 7225.42 542.161   4
   2  -4   7 7626.54 700.689   7
   2  -4   7 7688.44 599.819   4
   2  -4   8 22762.7 1113.80   7
   2  -4   8 22815.4 1007.93   4
   2  -4   9 11054.0 817.724   7
   2  -4  10 7708.66 704.139   7
   2  -4  11 555.868 404.822   7
   2  -4  12 12875.3 913.502   7
   2  -4  13-342.085 445.681   7
   2  -4  14 13285.4 941.688   7
   2  -3 -18 2489.82 1092.09   3
   2  -3 -17 44.4839 1042.36   2
   2  -3 -17 2259.86 1039.01   3
   2  -3 -16 700.908 867.971   2
   2  -3 -16 2676.05 970.302   3
   2  -3 -15 8089.60 1239.37   3
   2  -3 -15 7762.97 1017.18   1
   2  -3 -14-1112.37 938.153   2
   2  -3 -14-128.945 569.257   1
   2  -3 -14 984.886 742.099   3
   2  -3 -13 10514.1 1218.67   2
   2  -3 -13 13064.2 1374.77   3
   2  -3 -12-362.722 799.192   2
   2  -3 -12 549.685 626.045   3
   2  -3 -11 17182.4 1381.16   3
   2  -3 -11 14630.5 1028.59   5
   2  -3 -10 1995.46 650.813   3
   2  -3 -10 2111.14 534.259   5
   2  -3 -10 2419.15 307.610   7
   2  -3  -9 9534.73 799.972   5
   2  -3  -9 8600.12 522.126   7
   2  -3  -9 9416.78 987.564   3
   2  -3  -8 5683.80 820.492   2
   2  -3  -8 7338.79 732.226   5
   2  -3  -8 6953.92 867.639   3
   2  -3  -8 6158.50 509.265   7
   2  -3  -7 19485.5 1214.85   2
   2  -3  -7 22008.6 1079.27   5
   2  -3  -7 19174.8 793.634   7
   2  -3  -6 5263.56 689.020   2
   2  -3  -6 6115.53 641.802   5
   2  -3  -6 5560.06 500.402   7
   2  -3  -5 2180.57 459.222   5
   2  -3  -5 1994.17 537.011   2
   2  -3  -5 2259.05 386.215   7
   2  -3  -4 29668.3 1163.71   5
   2  -3  -4 29721.1 1219.93   2
   2  -3  -4 27602.4 973.959   7
   2  -3  -4 28061.6 1019.73   4
   2  -3  -3 18478.5 928.142   2
   2  -3  -3 16937.5 786.623   7
   2  -3  -3 17496.4 727.833   4
   2  -3  -2 34971.1 1095.42   7
   2  -3  -2 34671.6 879.989   4
   2  -3  -1 22047.9 909.548   7
   2  -3  -1 20494.5 588.835   4
   2  -3   0 85818.4 1394.88   1
   2  -3   0 89333.4 1762.22   7
   2  -3   1 7283.91 558.092   1
   2  -3   1 12679.9 785.865   7
   2  -3   2 51913.0 1225.69   1
   2  -3   2 51206.7 1369.11   7
   2  -3   3 1548.88 368.018   1
   2  -3   3 2698.16 497.509   7
   2  -3   3 1738.63 211.513   4
   2  -3   3 1237.88 228.607   3
   2  -3   4 103312. 1951.93   7
   2  -3   4 109493. 2045.62   1
   2  -3   5 3995.41 551.712   7
   2  -3   6 37094.6 1220.97   7
   2  -3   7 2458.48 471.203   7
   2  -3   8 9652.49 727.525   7
   2  -3   9 12526.3 780.477   7
   2  -3  10 3149.85 530.770   7
   2  -3  11 10812.4 742.013   7
   2  -3  12 1353.64 442.111   7
   2  -3  13 24371.3 1062.76   7
   2  -3  14 451.546 405.590   7
   2  -2 -20 600.687 1009.59   3
   2  -2 -19 2721.88 1145.15   3
   2  -2 -18 1024.93 917.404   3
   2  -2 -17 3701.45 929.678   1
   2  -2 -17 3940.65 1056.37   3
   2  -2 -16 3961.14 880.470   1
   2  -2 -16 3133.48 948.665   3
   2  -2 -15 1187.25 637.060   1
   2  -2 -15 1505.51 843.324   3
   2  -2 -14 7739.32 1114.79   3
   2  -2 -14 6318.32 865.505   1
   2  -2 -13 302.343 605.970   3
   2  -2 -13 90.9277 535.757   1
   2  -2 -12 24032.5 1602.90   3
   2  -2 -12 22892.3 1329.63   1
   2  -2 -11 4320.85 769.018   3
   2  -2 -10 12485.8 1091.98   3
   2  -2 -10 9590.12 321.070   7
   2  -2  -9 40.1870 165.666   7
   2  -2  -9-189.559 462.495   3
   2  -2  -8 42635.0 1721.99   3
   2  -2  -8 43091.2 925.896   7
   2  -2  -7 1516.11 457.443   3
   2  -2  -7 1777.95 279.483   7
   2  -2  -6 40796.3 1521.56   3
   2  -2  -6 40906.2 987.854   7
   2  -2  -5 14544.4 903.606   3
   2  -2  -5 15064.5 650.371   7
   2  -2  -5 14441.2 785.571   4
   2  -2  -4 45250.2 1426.73   3
   2  -2  -4 44989.8 1076.44   7
   2  -2  -4 46114.8 1200.54   4
   2  -2  -3 24342.5 824.845   7
   2  -2  -3 23369.4 985.683   3
   2  -2  -3 24142.0 783.848   4
   2  -2  -2 33305.3 924.557   2
   2  -2  -2 29678.7 1009.78   3
   2  -2  -2 31253.8 940.604   7
   2  -2  -2 28580.8 726.246   4
   2  -2  -1 16105.5 594.381   2
   2  -2  -1 13504.8 389.079   1
   2  -2  -1 15464.4 691.457   3
   2  -2  -1 16303.6 690.026   7
   2  -2  -1 14194.1 425.221   4
   2  -2   0 28148.6 861.457   3
   2  -2   0 26748.7 619.650   1
   2  -2   1 72089.9 1162.48   3
   2  -2   1 77161.9 1442.82   7
   2  -2   1 74629.1 1153.65   1
   2  -2   2 1594.20 270.479   3
   2  -2   2 2159.69 464.278   7
   2  -2   3 29762.4 975.354   7
   2  -2   4 5199.69 493.571   7
   2  -2   5 61600.8 1398.41   7
   2  -2   6 2365.47 422.819   7
   2  -2   7 34196.9 1092.73   7
   2  -2   8 12004.5 688.886   7
   2  -2   9 15535.6 755.923   7
   2  -2  10 19494.7 857.431   7
   2  -2  11 1030.83 348.667   7
   2  -2  12 18407.5 847.779   7
   2  -2  13 86.4745 316.155   7
   2  -1 -20 2613.60 1090.27   3
   2  -1 -19-184.218 878.929   3
   2  -1 -18 6002.34 1083.71   1
   2  -1 -18 5152.40 1159.96   3
   2  -1 -17 1020.76 740.489   1
   2  -1 -17 1300.00 838.325   3
   2  -1 -16 6695.33 1128.61   3
   2  -1 -16 6681.95 995.665   1
   2  -1 -15 7169.52 1071.99   3
   2  -1 -15 6341.33 947.370   1
   2  -1 -14 7924.70 1082.85   3
   2  -1 -14 7582.67 961.931   1
   2  -1 -13 11106.4 1131.85   3
   2  -1 -13 9528.51 958.188   1
   2  -1 -12 7513.76 965.245   3
   2  -1 -12 6575.41 833.768   1
   2  -1 -11 13823.1 1125.31   3
   2  -1 -11 12786.5 950.715   1
   2  -1 -10 14078.6 1089.55   3
   2  -1 -10 12951.1 903.436   1
   2  -1  -9 17262.7 1123.58   3
   2  -1  -9 16012.0 905.187   1
   2  -1  -8 6801.58 326.551   7
   2  -1  -8 7392.86 797.161   3
   2  -1  -8 6670.28 600.192   1
   2  -1  -7 41577.9 806.640   7
   2  -1  -7 39813.3 1164.75   1
   2  -1  -7 40759.5 1509.43   3
   2  -1  -6 8646.88 719.903   3
   2  -1  -6 9315.14 443.408   7
   2  -1  -6 8708.17 521.116   1
   2  -1  -5 42151.4 1372.58   3
   2  -1  -5 41646.9 927.435   1
   2  -1  -5 43165.5 913.442   7
   2  -1  -5 43270.5 1253.40   4
   2  -1  -4 24206.9 994.009   3
   2  -1  -4 22803.1 577.421   1
   2  -1  -4 23825.1 712.083   7
   2  -1  -4 24550.5 888.876   4
   2  -1  -3 10381.9 499.505   7
   2  -1  -3 9772.39 516.798   4
   2  -1  -3 10281.4 636.087   3
   2  -1  -3 7976.86 269.878   1
   2  -1  -2 64736.3 1351.59   3
   2  -1  -2 66052.5 1165.28   7
   2  -1  -2 63060.1 1085.83   4
   2  -1  -1 2355.29 370.545   3
   2  -1  -1 3752.40 419.989   7
   2  -1   0 10011.5 516.700   3
   2  -1   0 14297.4 623.186   7
   2  -1   1 2643.34 418.676   7
   2  -1   2 96907.3 1195.36   6
   2  -1   2 98476.8 1492.01   7
   2  -1   3 7423.59 491.584   7
   2  -1   4 28516.8 868.439   7
   2  -1   5 1775.60 345.399   7
   2  -1   6 65969.1 1348.33   7
   2  -1   7 6052.55 507.026   7
   2  -1   8 26391.5 883.501   7
   2  -1   9 17803.9 748.019   7
   2  -1  10 12622.4 648.008   7
   2  -1  11 13015.7 633.108   7
   2  -1  12 2697.06 356.263   7
   2   0 -19 857.781 875.567   1
   2   0 -19 1610.38 953.993   3
   2   0 -18-303.523 860.246   3
   2   0 -18-629.251 880.976   1
   2   0 -17 5620.20 1033.85   3
   2   0 -17 4588.17 917.728   1
   2   0 -16 2835.86 781.203   1
   2   0 -16 934.121 709.144   3
   2   0 -15 9600.53 1075.96   1
   2   0 -15 9453.78 1126.59   3
   2   0 -14 9829.56 1036.76   1
   2   0 -14 10303.2 1113.72   3
   2   0 -13 9580.06 982.411   1
   2   0 -13 9611.19 1056.47   3
   2   0 -12 8155.35 851.435   1
   2   0 -12 8282.05 930.422   3
   2   0 -11 7010.97 767.407   1
   2   0 -11 6137.46 785.876   3
   2   0 -10 28766.6 1428.69   3
   2   0 -10 29741.3 1303.57   1
   2   0  -9 10072.8 868.900   3
   2   0  -9 10300.2 776.921   1
   2   0  -8 37406.3 1258.00   1
   2   0  -8 36764.2 1447.05   3
   2   0  -7 445.813 312.012   1
   2   0  -7 446.523 378.915   3
   2   0  -6 54686.0 1255.30   1
   2   0  -6 54839.8 1568.51   3
   2   0  -5 21396.0 620.948   7
   2   0  -5 21729.8 746.187   1
   2   0  -5 20655.7 942.149   3
   2   0  -5 21393.2 922.481   4
   2   0  -4 36806.8 836.840   7
   2   0  -4 36805.1 845.159   1
   2   0  -4 36610.7 1173.83   3
   2   0  -4 39180.7 1140.63   4
   2   0  -3 83917.0 1628.78   3
   2   0  -3 80766.5 1254.67   7
   2   0  -3 83532.5 1477.48   4
   2   0  -2 1222.42 366.334   3
   2   0  -2 2056.69 364.558   7
   2   0  -1 27670.0 782.858   7
   2   0   0 84021.0 1319.86   7
   2   0   1 27353.4 819.809   6
   2   0   1 29360.4 838.791   7
   2   0   2 94887.6 1200.57   2
   2   0   2 91997.4 1418.07   7
   2   0   3 135654. 1746.55   7
   2   0   4 1185.97 301.783   7
   2   0   5 20153.4 717.097   7
   2   0   6 1396.66 315.892   7
   2   0   7 17798.2 691.617   7
   2   0   8 1406.31 314.024   7
   2   0   9 19714.1 698.259   7
   2   1 -20 4939.41 1186.82   1
   2   1 -19-1452.42 1024.02   1
   2   1 -19-392.255 842.803   3
   2   1 -18 6701.99 1181.75   1
   2   1 -18 8354.55 1206.47   3
   2   1 -17 1107.68 751.020   3
   2   1 -17-1068.50 924.701   1
   2   1 -16 18360.0 1539.04   1
   2   1 -16 20699.4 1610.69   3
   2   1 -15 1832.00 740.363   3
   2   1 -15 125.623 728.165   1
   2   1 -14 21467.8 1464.53   1
   2   1 -14 24578.6 1570.69   3
   2   1 -13 6264.06 852.512   1
   2   1 -13 7709.90 921.810   3
   2   1 -12 8734.02 911.712   1
   2   1 -12 9390.52 983.000   3
   2   1 -11 12979.9 980.217   1
   2   1 -11 14465.7 1068.75   3
   2   1 -10 8654.09 810.211   1
   2   1 -10 9357.55 875.088   3
   2   1  -9 22232.0 1139.17   1
   2   1  -9 23388.3 1207.12   3
   2   1  -8 15327.2 918.702   1
   2   1  -8 15354.2 968.432   3
   2   1  -7 32005.1 1195.44   1
   2   1  -7 31380.2 1255.06   3
   2   1  -6 7012.17 647.653   3
   2   1  -6 7971.18 623.994   1
   2   1  -5 47378.4 1404.64   3
   2   1  -5 46753.3 1217.52   1
   2   1  -5 50979.1 1475.56   4
   2   1  -2 11603.6 621.706   6
   2   1  -1 29892.2 959.384   6
   2   1   2 66564.8 1340.73   2
   2   1   3 5916.61 493.698   2
   2   2 -21 5626.68 1414.46   1
   2   2 -20 596.366 953.278   1
   2   2 -19 3943.54 1095.14   1
   2   2 -18 72.9430 880.290   1
   2   2 -18 325.912 708.885   3
   2   2 -17 16985.0 1617.68   1
   2   2 -17 17496.5 1496.45   3
   2   2 -16 1031.98 681.898   3
   2   2 -16 796.136 747.863   1
   2   2 -15 21452.0 1614.37   1
   2   2 -15 23664.4 1550.22   3
   2   2 -14 4700.98 819.794   3
   2   2 -14 3943.44 842.058   1
   2   2 -13 5662.82 824.829   3
   2   2 -13 5241.39 854.134   1
   2   2 -12 2565.44 714.440   1
   2   2 -12 3274.75 670.310   3
   2   2 -11 3751.21 651.802   3
   2   2 -11 3749.21 708.976   1
   2   2 -10 9772.08 877.662   3
   2   2 -10 8951.26 911.784   1
   2   2  -9 9467.22 842.705   3
   2   2  -9 9503.72 885.263   1
   2   2  -8 9354.63 788.764   1
   2   2  -7 15530.6 940.264   1
   2   2  -4 89240.1 1805.41   6
   2   2  -4 84655.4 1353.24   5
   2   2  -3 771.688 391.815   6
   2   2  -3 772.187 277.361   5
   2   2  -2 36888.0 1213.22   6
   2   2  -2 43875.8 1191.29   5
   2   2  -1 183646. 2296.43   5
   2   2   0 198448. 2492.73   5
   2   2   1 1360.94 362.715   5
   2   2   2 29071.3 1097.13   2
   2   2   2 32142.4 1146.15   5
   2   2   3 38211.3 1324.68   2
   2   2   3 41763.3 1349.08   5
   2   3 -21 2336.28 1112.66   1
   2   3 -20 4025.17 1170.45   1
   2   3 -19 729.775 940.353   1
   2   3 -18 5642.33 1159.79   1
   2   3 -17 640.253 803.550   1
   2   3 -16 18897.4 1642.64   1
   2   3 -15 416.756 702.020   1
   2   3 -14 7734.32 1078.25   1
   2   3 -13 3387.87 785.546   1
   2   3 -12 7342.49 956.661   1
   2   3 -11 4567.26 766.578   1
   2   3 -10 22342.8 1352.87   1
   2   3  -9 11062.5 443.876   5
   2   3  -9 14176.3 1050.26   1
   2   3  -8 16042.9 593.675   5
   2   3  -7 4204.08 589.026   6
   2   3  -7 3959.41 359.460   5
   2   3  -6 39182.3 1393.95   6
   2   3  -6 32996.3 946.494   5
   2   3  -5 52255.9 1511.72   6
   2   3  -5 50220.5 1188.08   5
   2   3  -4 12051.2 824.755   6
   2   3  -4 11204.8 646.598   5
   2   3  -3 42917.8 1189.23   5
   2   3  -2 41565.1 1251.82   5
   2   3  -1 64034.6 1574.62   5
   2   3   0 24602.5 1035.53   5
   2   4 -21 3406.79 1223.88   1
   2   4 -20 3436.28 1180.67   1
   2   4 -19 4238.20 1135.79   1
   2   4 -18 1260.54 894.123   1
   2   4 -17 8938.82 1286.41   1
   2   4 -16 1779.88 875.082   1
   2   4 -15 15896.4 1494.37   1
   2   4 -14 1176.44 789.249   1
   2   4 -13 23038.0 1630.56   1
   2   4 -12 2994.70 865.096   1
   2   4 -11 24049.7 1260.88   6
   2   4 -11 20962.2 683.599   5
   2   4 -10 8299.25 876.876   6
   2   4 -10 5774.25 462.941   5
   2   4  -9 34581.6 1434.12   6
   2   4  -9 29711.1 942.014   5
   2   4  -8 4749.04 641.758   6
   2   4  -8 4046.81 429.789   5
   2   4  -7 34758.0 1360.08   6
   2   4  -7 28855.6 997.682   5
   2   4  -6 10746.0 652.576   5
   2   4  -5 28140.8 1061.69   5
   2   5 -20 7899.46 1509.15   1
   2   5 -19 9762.93 1512.22   1
   2   5 -18 8627.61 1435.23   1
   2   5 -17 7173.48 1319.58   1
   2   5 -16 10862.2 1441.97   1
   2   5 -15 6338.67 900.713   6
   2   5 -14 18062.9 1252.99   6
   2   5 -13 4100.40 730.217   6
   2   5 -12 22351.0 1303.51   6
   2   5 -11 608.692 564.041   6
   2   5 -11 40.6311 285.799   5
   2   5 -10 20563.3 1189.51   6
   2   5 -10 17986.6 862.145   5
   3 -11  -5 5676.80 1127.11   7
   3 -11  -4 2004.72 895.027   7
   3 -11  -3 6522.61 1164.30   7
   3 -11  -2 401.965 806.561   7
   3 -11  -1 3981.23 1039.98   7
   3 -11   0-324.735 762.978   7
   3 -11   1 4500.94 1069.74   7
   3 -11   2-45.4554 827.334   7
   3 -11   3 5063.56 1093.16   7
   3 -11   4 2529.65 961.430   7
   3 -11   5 6084.19 1191.00   7
   3 -11   6 5054.72 1131.13   7
   3 -11   7 5509.59 1183.08   7
   3 -11   8 6888.72 1266.89   7
   3 -11   9 2038.04 948.238   7
   3 -11  10 5599.87 1184.68   7
   3 -11  11 1139.21 868.859   7
   3 -11  12 6574.63 1232.80   7
   3 -10  -6 2005.32 841.881   7
   3 -10  -5 2214.09 821.210   7
   3 -10  -4 4862.32 994.375   7
   3 -10  -3 2045.68 854.290   7
   3 -10  -2 6507.56 1104.61   7
   3 -10  -1-126.923 745.456   7
   3 -10   0 6397.50 1137.19   7
   3 -10   1 548.110 743.851   7
   3 -10   2 10512.3 1310.12   7
   3 -10   3 2950.98 940.024   7
   3 -10   4 15949.7 1537.06   7
   3 -10   5 6427.06 1152.16   7
   3 -10   6 14171.7 1516.71   7
   3 -10   7 8005.56 1254.58   7
   3 -10   8 4975.35 1070.28   7
   3 -10   9 7079.57 1192.29   7
   3 -10  10 1235.86 858.196   7
   3 -10  11 5782.16 1133.91   7
   3 -10  12 909.320 783.567   7
   3 -10  13 5407.79 1104.68   7
   3 -10  14 495.246 783.776   7
   3 -10  15 5970.45 1151.80   7
   3 -10  16 1286.53 911.262   7
   3  -9  -7 951.928 694.361   7
   3  -9  -6 3863.74 899.502   7
   3  -9  -5 1643.29 743.786   7
   3  -9  -4 4152.27 877.117   7
   3  -9  -3 3829.18 877.030   7
   3  -9  -2 8975.77 1150.45   7
   3  -9  -1 8823.10 1187.43   7
   3  -9   0 1043.93 743.638   7
   3  -9   1 17405.2 1468.66   7
   3  -9   2 4645.92 967.667   7
   3  -9   3 13874.1 1364.84   7
   3  -9   4 5441.37 1047.29   7
   3  -9   5 11316.3 1274.45   7
   3  -9   6 8086.60 1201.48   7
   3  -9   7 9861.11 1241.18   7
   3  -9   8 7853.97 1177.74   7
   3  -9   9 2877.08 918.882   7
   3  -9  10 10920.7 1300.26   7
   3  -9  11 4612.85 1023.06   7
   3  -9  12 7508.62 1136.33   7
   3  -9  13 864.849 801.127   7
   3  -9  14 8059.34 1160.61   7
   3  -9  15 508.054 790.382   7
   3  -9  16 5697.29 1126.12   7
   3  -8 -10 250.851 826.444   3
   3  -8  -9 1124.95 862.258   3
   3  -8  -7 5843.20 905.376   7
   3  -8  -6 2895.81 727.550   7
   3  -8  -5 11093.4 1129.92   7
   3  -8  -4 6988.62 977.252   7
   3  -8  -3 19713.5 1481.58   7
   3  -8  -2 21119.1 1501.73   7
   3  -8  -1 15525.4 1364.35   7
   3  -8   0 36571.8 1911.89   7
   3  -8   1 7877.38 1110.76   7
   3  -8   2 25078.3 1609.88   7
   3  -8   3 12978.3 1262.40   7
   3  -8   4 7783.19 1040.76   7
   3  -8   5 1537.65 741.311   7
   3  -8   6 8014.07 1048.04   7
   3  -8   7 1283.93 724.583   7
   3  -8   8 6281.11 963.771   7
   3  -8   9 7438.75 1038.75   7
   3  -8  10 4689.15 930.121   7
   3  -8  11 8777.52 1120.54   7
   3  -8  12 2058.01 783.285   7
   3  -8  13 5854.20 979.929   7
   3  -8  14 57.6118 676.668   7
   3  -8  15 3983.75 905.797   7
   3  -8  16-349.040 701.974   7
   3  -7 -13 4571.75 1267.23   2
   3  -7 -12 9482.64 1413.57   2
   3  -7 -12 5996.84 1259.46   3
   3  -7 -11 27.2036 811.339   3
   3  -7 -11 4501.31 1187.86   2
   3  -7 -10 11398.7 1471.83   3
   3  -7  -9 459.914 775.918   3
   3  -7  -8 23312.5 1396.37   7
   3  -7  -7 1482.23 643.780   7
   3  -7  -6 19235.1 1284.56   7
   3  -7  -5 1194.72 647.082   7
   3  -7  -4 21635.3 1355.67   7
   3  -7  -3 1549.81 636.662   7
   3  -7  -2 10198.6 1035.70   7
   3  -7  -1 6925.90 896.564   7
   3  -7   0 1210.24 644.384   7
   3  -7   1 17055.7 1249.36   7
   3  -7   2 7065.60 910.919   7
   3  -7   3 509.981 198.682   4
   3  -7   3 5685.13 842.872   7
   3  -7   4 179.220 161.471   4
   3  -7   4 2548.27 717.166   7
   3  -7   5 6450.86 877.274   7
   3  -7   5 3540.53 303.318   4
   3  -7   6 771.042 255.946   4
   3  -7   6 586.521 332.755   3
   3  -7   7 15541.2 1233.25   7
   3  -7   7 13962.4 674.901   4
   3  -7   7 12375.9 612.708   3
   3  -7   8 4408.32 826.371   7
   3  -7   9 15809.7 1301.13   7
   3  -7  10 12860.1 1174.40   7
   3  -7  11 5563.25 885.038   7
   3  -7  12 4431.76 829.255   7
   3  -7  13 5311.69 924.504   7
   3  -7  14 5854.47 937.779   7
   3  -7  15 171.825 654.911   7
   3  -6 -14 4507.88 1215.86   2
   3  -6 -14 3775.96 1189.49   3
   3  -6 -13 2631.36 1085.01   2
   3  -6 -13 24.8820 793.511   3
   3  -6 -12 4340.19 1098.47   2
   3  -6 -12 2704.36 967.704   3
   3  -6 -11 4368.33 1075.25   2
   3  -6 -11 2292.47 907.418   3
   3  -6 -10 1436.47 737.711   3
   3  -6 -10 4126.94 1014.60   2
   3  -6  -9 12427.4 1370.29   3
   3  -6  -9 12800.6 973.190   7
   3  -6  -8-22.2350 648.034   3
   3  -6  -8 733.868 540.346   7
   3  -6  -7 16771.1 1375.27   2
   3  -6  -7 13894.3 1034.64   7
   3  -6  -6 622.946 468.374   7
   3  -6  -5 10060.1 899.370   7
   3  -6  -4 478.564 503.489   7
   3  -6  -3 11907.7 976.990   7
   3  -6  -2 4305.91 700.349   7
   3  -6  -2 3535.81 418.124   4
   3  -6  -1 13705.3 1054.30   7
   3  -6  -1 12080.4 615.480   4
   3  -6   0 24943.8 1365.90   7
   3  -6   1 19123.9 1242.15   7
   3  -6   2 29021.8 1462.36   7
   3  -6   2 6312.72 304.479   4
   3  -6   3 747.375 119.057   4
   3  -6   3 13216.2 1073.40   7
   3  -6   4 10300.7 969.124   7
   3  -6   4 3582.06 241.739   4
   3  -6   5 1209.77 217.716   4
   3  -6   5 1746.31 342.528   3
   3  -6   5 2479.16 642.329   7
   3  -6   6 14372.9 618.488   3
   3  -6   6 16134.3 1149.51   7
   3  -6   7 154.526 146.881   3
   3  -6   7 773.616 606.000   7
   3  -6   8 27885.4 1506.69   7
   3  -6   9 6049.86 827.504   7
   3  -6  10 9880.81 983.774   7
   3  -6  11 2624.15 690.079   7
   3  -6  12 10671.7 1052.22   7
   3  -6  13 3578.05 766.101   7
   3  -6  14 4047.41 798.826   7
   3  -6  15 8862.31 1033.55   7
   3  -5 -15 4832.47 1222.83   2
   3  -5 -15 5599.56 1290.88   3
   3  -5 -14 670.332 933.430   2
   3  -5 -14 432.267 834.150   3
   3  -5 -13 3929.42 1067.31   2
   3  -5 -13 4706.54 1109.13   3
   3  -5 -12 1769.36 894.857   2
   3  -5 -12 1226.27 779.795   3
   3  -5 -11 5610.63 1074.45   2
   3  -5 -11 5781.36 1060.44   3
   3  -5 -10 8751.87 1156.60   2
   3  -5 -10 8626.38 1172.46   3
   3  -5  -9 2827.10 817.697   3
   3  -5  -9 3488.42 929.410   2
   3  -5  -9 3346.57 609.927   7
   3  -5  -8 24331.2 1576.22   2
   3  -5  -8 22096.7 1577.75   3
   3  -5  -8 22323.5 1145.45   7
   3  -5  -7 1851.37 652.764   3
   3  -5  -7 3114.89 846.408   2
   3  -5  -7 2080.31 519.143   7
   3  -5  -6 4356.34 767.780   3
   3  -5  -6 5762.87 878.825   2
   3  -5  -6 4856.65 634.706   7
   3  -5  -5 1429.24 635.211   2
   3  -5  -5 676.788 448.490   7
   3  -5  -4 18035.5 1138.18   2
   3  -5  -4 15550.2 997.397   7
   3  -5  -3-108.146 287.170   4
   3  -5  -3 105.391 429.595   7
   3  -5  -2 22457.6 1184.49   7
   3  -5  -2 20436.2 756.867   4
   3  -5  -1 8302.24 633.649   1
   3  -5  -1 10085.7 936.229   7
   3  -5  -1 7959.84 478.208   4
   3  -5   0 27207.7 1082.68   1
   3  -5   0 30222.0 1361.45   7
   3  -5   1 21575.3 1028.47   1
   3  -5   1 23050.3 1222.30   7
   3  -5   2 25947.8 1044.78   3
   3  -5   2 28293.3 1337.19   7
   3  -5   3 28471.8 1018.10   3
   3  -5   3 32438.5 1451.35   7
   3  -5   4 9355.74 580.486   3
   3  -5   4 12066.8 985.631   7
   3  -5   5 20201.7 687.247   3
   3  -5   5 21440.1 1192.60   7
   3  -5   6 1792.79 554.151   7
   3  -5   6 1064.48 179.615   3
   3  -5   7 20234.4 1192.39   7
   3  -5   8 1102.13 565.139   7
   3  -5   9 22833.7 1283.62   7
   3  -5  10 2649.16 621.740   7
   3  -5  11 11754.2 983.433   7
   3  -5  12 1314.84 581.462   7
   3  -5  13 11355.0 1026.69   7
   3  -5  14 5212.27 789.662   7
   3  -5  15 5370.31 793.861   7
   3  -4 -17 846.014 976.740   3
   3  -4 -16 4178.31 1148.71   2
   3  -4 -16 4865.69 1251.16   3
   3  -4 -15-1373.87 990.143   2
   3  -4 -15-87.7940 839.068   3
   3  -4 -14 6249.31 1192.65   3
   3  -4 -14 4147.19 1035.23   2
   3  -4 -13-858.462 878.782   2
   3  -4 -13 216.723 716.421   3
   3  -4 -12 4523.67 972.065   2
   3  -4 -12 6131.56 1094.47   3
   3  -4 -11 1989.52 763.543   2
   3  -4 -11 3740.53 875.790   3
   3  -4 -10 2096.84 760.047   2
   3  -4 -10 3254.24 496.094   7
   3  -4 -10 3202.80 818.854   3
   3  -4  -9 11894.8 1170.31   2
   3  -4  -9 12307.5 790.649   7
   3  -4  -9 11893.9 1201.10   3
   3  -4  -8 1943.27 763.975   2
   3  -4  -8 1980.14 496.479   7
   3  -4  -8 1452.56 658.247   3
   3  -4  -7 18058.7 1243.61   2
   3  -4  -7 17938.5 1303.80   3
   3  -4  -7 17375.1 935.714   7
   3  -4  -6 2784.81 662.690   3
   3  -4  -6 2942.38 680.965   2
   3  -4  -6 3066.14 529.959   7
   3  -4  -5 17508.9 1127.42   2
   3  -4  -5 16064.2 916.584   7
   3  -4  -5 15592.7 1128.23   3
   3  -4  -4 315.390 409.704   3
   3  -4  -4 207.491 282.119   4
   3  -4  -4 311.727 462.592   2
   3  -4  -4 335.376 379.934   7
   3  -4  -3 50508.5 1547.05   2
   3  -4  -3 46007.2 1675.89   3
   3  -4  -3 47021.1 1512.41   7
   3  -4  -3 45342.4 1152.78   4
   3  -4  -2 653.659 416.549   3
   3  -4  -2 457.199 250.791   4
   3  -4  -2 440.270 423.270   7
   3  -4  -1 55173.9 1220.08   1
   3  -4  -1 57595.6 941.946   4
   3  -4   0 18362.8 845.327   1
   3  -4   0 20435.1 1037.92   3
   3  -4   1 128225. 1971.58   1
   3  -4   1 118070. 2084.44   3
   3  -4   1 121997. 2394.02   7
   3  -4   2 39965.0 1168.28   3
   3  -4   2 42593.3 1305.20   1
   3  -4   3 34365.3 978.165   3
   3  -4   3 36835.0 1406.23   7
   3  -4   4 25888.2 778.578   3
   3  -4   4 27709.4 1251.66   7
   3  -4   5 7503.36 733.751   7
   3  -4   6 7038.39 732.823   7
   3  -4   7 4008.20 636.972   7
   3  -4   8 10535.2 853.461   7
   3  -4   9 1355.68 518.249   7
   3  -4  10 12642.5 947.966   7
   3  -4  11 2466.42 585.394   7
   3  -4  12 6126.43 734.390   7
   3  -4  13 5230.28 738.122   7
   3  -4  14 10670.9 905.530   7
   3  -3 -18 1304.77 1082.12   3
   3  -3 -17 737.709 942.572   2
   3  -3 -17 3337.17 1097.31   3
   3  -3 -16 257.315 861.865   2
   3  -3 -16 1515.24 962.250   3
   3  -3 -15 6081.67 1115.38   2
   3  -3 -15 8924.54 1319.47   3
   3  -3 -14 1824.90 865.540   3
   3  -3 -13 9473.45 956.946   1
   3  -3 -13 9605.76 1259.55   3
   3  -3 -12 3450.27 615.095   1
   3  -3 -12 4075.70 887.450   3
   3  -3 -11 17722.3 1458.11   3
   3  -3 -11 16286.3 1022.38   1
   3  -3 -10 1998.81 390.106   7
   3  -3 -10 2082.98 713.285   3
   3  -3  -9 10805.7 683.660   7
   3  -3  -9 10649.5 1099.08   3
   3  -3  -8 15971.5 1213.92   3
   3  -3  -8 16923.5 804.164   7
   3  -3  -7 20508.3 1308.61   3
   3  -3  -7 20117.8 908.759   7
   3  -3  -6 18098.4 1166.81   3
   3  -3  -6 18196.8 874.421   7
   3  -3  -5 13489.8 975.007   3
   3  -3  -5 13388.9 783.690   7
   3  -3  -4 21091.0 1005.41   2
   3  -3  -4 21188.9 1140.79   3
   3  -3  -4 22480.4 977.017   7
   3  -3  -4 23228.2 899.732   4
   3  -3  -3 29542.4 1088.05   2
   3  -3  -3 28496.1 1240.93   3
   3  -3  -3 28512.7 1100.84   7
   3  -3  -3 29144.6 907.486   4
   3  -3  -2 30335.4 1032.12   2
   3  -3  -2 24666.3 580.799   1
   3  -3  -2 29534.9 1129.66   7
   3  -3  -2 28301.3 1174.67   3
   3  -3  -2 27635.2 765.065   4
   3  -3  -1 29305.3 892.206   2
   3  -3  -1 26174.0 1057.52   3
   3  -3  -1 21498.5 579.094   4
   3  -3  -1 28946.4 1147.83   7
   3  -3  -1 23795.7 590.091   1
   3  -3   0 36966.9 1176.48   3
   3  -3   0 39533.8 1298.22   7
   3  -3   0 36426.8 842.873   1
   3  -3   1 9649.22 629.887   3
   3  -3   1 9206.50 553.102   1
   3  -3   1 11480.0 815.428   7
   3  -3   2 11804.4 618.219   3
   3  -3   2 14725.7 901.723   7
   3  -3   3 56034.0 1127.98   3
   3  -3   3 58192.0 1591.44   7
   3  -3   4 3673.96 626.337   7
   3  -3   5 35959.4 1316.56   7
   3  -3   6 112.901 397.384   7
   3  -3   7 27377.1 1191.69   7
   3  -3   8 2004.40 495.424   7
   3  -3   9 49846.0 1572.24   7
   3  -3  10 145.442 406.467   7
   3  -3  11 30734.6 1268.63   7
   3  -3  12 6824.90 706.931   7
   3  -3  13 24333.6 1184.95   7
   3  -3  14 420.410 429.748   7
   3  -2 -19 850.652 1061.87   3
   3  -2 -18 2455.31 1045.43   3
   3  -2 -17 4599.50 1115.60   3
   3  -2 -16 9662.77 1397.64   3
   3  -2 -15 1969.84 700.305   1
   3  -2 -15 1232.01 798.460   3
   3  -2 -14 10289.1 1286.87   3
   3  -2 -14 9520.45 997.492   1
   3  -2 -13 68.1510 482.881   1
   3  -2 -13 351.829 628.765   3
   3  -2 -12 11757.8 1210.48   3
   3  -2 -12 11898.2 942.928   1
   3  -2 -11 1575.40 500.587   1
   3  -2 -11 1240.87 642.169   3
   3  -2 -10 14061.7 1209.46   3
   3  -2 -10 14217.9 606.865   7
   3  -2 -10 14005.2 868.076   1
   3  -2  -9 873.605 321.476   7
   3  -2  -9 587.769 538.925   3
   3  -2  -9 563.738 348.232   1
   3  -2  -8 19782.6 801.573   7
   3  -2  -8 18461.2 837.746   1
   3  -2  -8 19501.1 1286.53   3
   3  -2  -7 17795.5 1165.43   3
   3  -2  -7 20378.5 829.860   7
   3  -2  -7 17838.6 714.228   1
   3  -2  -6 5515.64 506.894   7
   3  -2  -6 5620.26 725.450   3
   3  -2  -6 4893.33 358.972   1
   3  -2  -5 36998.1 1480.16   3
   3  -2  -5 35460.1 1087.04   7
   3  -2  -5 30953.9 671.138   1
   3  -2  -4 238.133 302.075   4
   3  -2  -4 405.701 309.431   7
   3  -2  -4 746.586 395.857   3
   3  -2  -3 78967.1 1905.12   3
   3  -2  -3 80995.7 1481.49   4
   3  -2  -3 79733.0 1639.24   7
   3  -2  -2 5154.66 563.342   3
   3  -2  -2 5305.93 550.978   7
   3  -2  -2 5180.47 426.254   4
   3  -2  -1 53807.9 1416.86   3
   3  -2  -1 56529.1 1410.70   7
   3  -2   0 21199.5 890.757   3
   3  -2   0 24110.4 991.717   7
   3  -2   1 75738.7 1475.64   3
   3  -2   1 78007.4 1688.19   7
   3  -2   2 26229.6 1033.41   7
   3  -2   3 55072.1 1447.03   7
   3  -2   4 30859.8 1126.69   7
   3  -2   5 31761.9 1140.67   7
   3  -2   6 6842.37 638.117   7
   3  -2   7 21813.5 980.071   7
   3  -2   8 18891.4 950.702   7
   3  -2   9 16168.2 909.670   7
   3  -2  10 18489.4 946.530   7
   3  -2  11 1455.85 429.604   7
   3  -2  12 6151.22 615.827   7
   3  -2  13 1283.00 463.779   7
   3  -1 -20 5141.97 1334.24   3
   3  -1 -19-87.0855 1025.12   3
   3  -1 -18 2673.59 1077.35   3
   3  -1 -17 3739.42 1033.20   3
   3  -1 -16 3515.72 826.634   1
   3  -1 -16 3950.79 1025.95   3
   3  -1 -15 5486.15 845.137   1
   3  -1 -15 6420.83 1073.87   3
   3  -1 -14 880.091 565.494   1
   3  -1 -14 751.682 726.650   3
   3  -1 -13 15295.5 1105.80   1
   3  -1 -13 14982.1 1354.40   3
   3  -1 -12 3481.92 672.803   1
   3  -1 -12 3733.07 880.724   3
   3  -1 -11 17053.4 1021.64   1
   3  -1 -11 16172.9 1276.59   3
   3  -1 -10 1159.84 401.343   1
   3  -1 -10 473.426 487.505   3
   3  -1  -9 44406.5 1345.01   1
   3  -1  -9 45011.6 1856.19   3
   3  -1  -9 47455.5 1029.09   7
   3  -1  -8 7813.99 571.951   1
   3  -1  -8 7216.69 803.382   3
   3  -1  -8 8563.20 514.188   7
   3  -1  -7 50918.1 1191.67   1
   3  -1  -7 52191.8 1832.02   3
   3  -1  -7 52586.2 1203.94   7
   3  -1  -6 46765.5 1176.94   7
   3  -1  -6 47559.6 1055.09   1
   3  -1  -6 45399.5 1633.50   3
   3  -1  -5 164.411 367.146   4
   3  -1  -5 326.619 208.394   1
   3  -1  -5 664.353 320.192   7
   3  -1  -5 385.756 383.099   3
   3  -1  -4 34098.5 1294.73   3
   3  -1  -4 34427.4 1045.77   7
   3  -1  -4 36287.8 1169.26   4
   3  -1  -3 17966.6 925.405   3
   3  -1  -3 18360.7 797.443   7
   3  -1  -2 7930.12 636.868   3
   3  -1  -2 9004.65 583.786   7
   3  -1  -1 10020.5 659.576   3
   3  -1  -1 11777.0 671.412   7
   3  -1   0 11202.1 651.116   7
   3  -1   1 562.316 365.811   7
   3  -1   2 18261.9 748.226   6
   3  -1   2 21178.8 889.834   7
   3  -1   3 25737.4 973.717   7
   3  -1   4 58238.0 1461.44   7
   3  -1   5 13290.1 764.965   7
   3  -1   6 23896.7 970.487   7
   3  -1   7 22873.3 971.996   7
   3  -1   8 17383.1 890.123   7
   3  -1   9 19938.3 913.922   7
   3  -1  10 3429.54 485.096   7
   3  -1  11 13152.5 772.922   7
   3  -1  12 208.842 329.950   7
   3  -1  13 8078.49 593.863   7
   3   0 -20 605.570 994.860   3
   3   0 -19 4665.98 1161.45   3
   3   0 -18 673.806 820.797   1
   3   0 -18 1410.95 895.465   3
   3   0 -17 3269.26 890.493   1
   3   0 -17 4590.51 1076.49   3
   3   0 -16 282.697 724.210   1
   3   0 -16 1474.46 798.785   3
   3   0 -15 3411.33 877.986   3
   3   0 -15 2907.23 748.041   1
   3   0 -14 9230.83 994.690   1
   3   0 -14 9844.13 1190.65   3
   3   0 -13 1688.79 720.790   3
   3   0 -13 871.789 570.400   1
   3   0 -12 11101.6 955.152   1
   3   0 -12 11901.4 1128.02   3
   3   0 -11 1862.67 624.311   3
   3   0 -11 1517.25 508.624   1
   3   0 -10 27613.4 1253.31   1
   3   0 -10 27350.6 1508.93   3
   3   0  -9 2201.72 499.640   1
   3   0  -9 2223.34 637.429   3
   3   0  -8 39060.6 1280.53   1
   3   0  -8 38092.2 1624.42   3
   3   0  -7 34214.7 1109.63   1
   3   0  -7 31741.0 1430.92   3
   3   0  -6 11214.3 873.334   3
   3   0  -6 10276.0 572.195   7
   3   0  -6 12935.2 649.774   1
   3   0  -5 22477.5 1103.06   3
   3   0  -5 23560.0 855.125   7
   3   0  -4 1381.44 410.999   3
   3   0  -4 1522.56 351.097   7
   3   0  -3 10837.3 752.236   3
   3   0  -3 11864.4 659.641   7
   3   0  -2 41436.6 1147.17   7
   3   0  -1 70715.6 1440.73   7
   3   0   0 9228.72 682.632   6
   3   0   0 9314.30 646.389   7
   3   0   1 19462.2 844.138   6
   3   0   1 21116.3 856.902   7
   3   0   2 2898.93 331.676   2
   3   0   2 3298.37 450.897   7
   3   0   3 85467.5 1695.34   7
   3   0   4 6986.83 594.479   7
   3   0   5 45775.5 1283.48   7
   3   0   6 9574.04 665.623   7
   3   0   7 29363.2 1045.55   7
   3   0   8 6208.41 581.366   7
   3   0   9 17951.7 833.381   7
   3   0  10 14712.3 759.878   7
   3   1 -19 199.670 871.749   3
   3   1 -19-316.008 895.258   1
   3   1 -18 7735.99 1279.20   3
   3   1 -18 7391.28 1219.42   1
   3   1 -17 2573.39 896.903   3
   3   1 -17 2265.30 864.037   1
   3   1 -16 8148.58 1135.84   1
   3   1 -16 7318.50 1138.06   3
   3   1 -15 3559.63 807.764   1
   3   1 -15 3879.17 872.758   3
   3   1 -14 6791.67 961.962   1
   3   1 -14 6364.94 978.605   3
   3   1 -13 18468.6 1338.82   1
   3   1 -13 17903.2 1403.78   3
   3   1 -12 1679.76 603.406   1
   3   1 -12 2045.64 649.644   3
   3   1 -11 17946.7 1183.12   1
   3   1 -11 16876.6 1232.51   3
   3   1 -10 3172.41 730.643   3
   3   1 -10 3852.32 711.687   1
   3   1  -9 29479.6 1466.09   3
   3   1  -9 29830.0 1283.33   1
   3   1  -8 279.048 475.065   3
   3   1  -8 1182.63 483.581   1
   3   1  -7 25367.9 1267.56   3
   3   1  -6 3277.60 577.139   3
   3   1  -2 35773.0 1236.92   6
   3   1  -2 35104.7 1063.26   7
   3   1  -1 43193.2 1386.36   6
   3   1  -1 44037.1 1204.45   7
   3   1   0 77403.2 1754.56   6
   3   1   0 77630.8 1594.93   7
   3   1   1 55779.1 1358.29   7
   3   1   2 64150.7 1390.92   2
   3   1   2 64058.9 1487.69   7
   3   1   3 6139.00 544.542   2
   3   1   3 5127.47 501.433   7
   3   1   4 56662.0 1421.53   7
   3   1   5 109.153 321.491   7
   3   2 -20 913.306 1009.43   1
   3   2 -19 11028.4 1459.13   1
   3   2 -18 1246.34 878.757   3
   3   2 -18 1580.96 945.992   1
   3   2 -17 9504.90 1287.42   3
   3   2 -17 8765.14 1260.06   1
   3   2 -16 1173.52 789.730   3
   3   2 -16 1233.42 756.040   1
   3   2 -15 14453.1 1402.09   3
   3   2 -15 14662.8 1405.71   1
   3   2 -14 3718.07 835.439   3
   3   2 -14 4072.36 861.522   1
   3   2 -13 3786.55 856.226   3
   3   2 -13 3186.93 798.030   1
   3   2 -12 8724.88 1017.65   3
   3   2 -12 8329.05 956.158   1
   3   2 -11 3612.65 772.954   1
   3   2 -10 13705.2 1027.71   1
   3   2  -4 41774.7 1451.16   6
   3   2  -3 11732.6 881.208   6
   3   2  -2 37297.7 1357.86   6
   3   2   2 14374.2 828.257   2
   3   3 -21 2870.30 1173.33   1
   3   3 -20 8083.12 1395.18   1
   3   3 -19 1688.71 973.593   1
   3   3 -18 8713.17 1312.59   1
   3   3 -17 1199.13 867.206   1
   3   3 -16 15712.1 1475.72   1
   3   3 -15 570.802 742.546   1
   3   3 -14 7980.35 1079.77   1
   3   3 -13 3312.98 841.641   1
   3   3  -7 29509.7 1401.31   6
   3   3  -6 1072.26 577.282   6
   3   3  -5 113046. 2472.88   6
   3   3  -5 106220. 1963.15   5
   3   3  -4 14197.4 1029.05   6
   3   3  -4 12891.0 780.844   5
   3   3  -3 130525. 2317.68   5
   3   4 -19 12049.7 1569.73   1
   3   4 -12 3914.79 780.233   6
   3   4 -11 15869.3 1242.38   6
   3   4 -10 18261.2 1231.17   6
   3   4  -9 20434.1 1315.08   6
   3   4  -8 26602.2 1359.29   6
   3   4  -8 24202.8 980.453   5
   3   4  -7 10728.3 980.555   6
   3   4  -7 9958.40 715.205   5
   3   4  -6 64231.5 2000.91   6
   3   5 -16 7275.89 1064.01   6
   3   5 -15 537.635 725.476   6
   3   5 -14 9497.65 1086.35   6
   3   5 -13 1214.03 708.354   6
   3   5 -12 13355.6 1170.21   6
   3   5 -11 12442.3 1111.68   6
   3   5 -10 12122.3 1089.31   6
   3   5 -10 9307.05 701.969   5
   3   5  -9 19016.5 1245.52   6
   3   6 -15 12906.9 1229.66   6
   3   6 -14-34.0570 632.676   6
   3   6 -13 12604.9 1176.24   6
   4 -11  -5 4036.35 1022.15   7
   4 -11  -4 424.724 885.582   3
   4 -11  -4 752.302 854.733   7
   4 -11  -3 3570.83 1100.00   3
   4 -11  -3 4007.35 1090.96   7
   4 -11  -2-1103.12 923.035   3
   4 -11  -2 655.498 845.457   7
   4 -11  -1 2300.05 952.130   3
   4 -11  -1 3055.70 1013.43   7
   4 -11   0-603.305 818.362   3
   4 -11   0 301.227 788.173   7
   4 -11   1 2828.56 898.232   3
   4 -11   1 3212.89 1028.69   7
   4 -11   2 4184.69 1083.39   7
   4 -11   3 5666.23 1165.00   7
   4 -11   4 9068.63 1360.43   7
   4 -11   5 6918.71 1257.53   7
   4 -11   6 9905.70 1433.25   7
   4 -11   7 5065.34 1208.18   7
   4 -11   8 9172.49 1386.76   7
   4 -11   9 1454.32 950.769   7
   4 -10  -6 2617.19 1037.09   3
   4 -10  -6 3662.43 942.271   7
   4 -10  -5-394.094 876.839   3
   4 -10  -5 413.968 722.783   7
   4 -10  -4 6017.35 1209.68   3
   4 -10  -4 7437.21 1195.83   7
   4 -10  -3 77.8818 748.123   3
   4 -10  -3 313.613 734.253   7
   4 -10  -2 10510.5 1335.04   7
   4 -10  -2 8088.07 1230.97   3
   4 -10  -1-162.905 673.506   3
   4 -10  -1 449.196 746.342   7
   4 -10   0 8686.77 1152.89   3
   4 -10   0 9385.95 1290.14   7
   4 -10   1 368.983 654.598   3
   4 -10   1 1212.79 861.229   7
   4 -10   2 5176.08 937.242   3
   4 -10   2 4881.03 1020.17   7
   4 -10   3 6531.21 1140.91   7
   4 -10   4 9391.61 1296.88   7
   4 -10   5 10106.0 1334.52   7
   4 -10   6 4961.34 1108.82   7
   4 -10   7 10354.9 1336.57   7
   4 -10   8 1562.14 889.370   7
   4 -10   9 5544.39 1111.68   7
   4 -10  10 250.037 783.680   7
   4 -10  11 3348.74 993.729   7
   4 -10  12 1612.82 923.152   7
   4 -10  13 4405.71 1095.42   7
   4 -10  14 2694.34 997.551   7
   4 -10  15 4121.48 1088.91   7
   4 -10  16 3009.02 1041.93   7
   4  -9  -8 4613.04 1197.48   3
   4  -9  -7 1281.19 752.402   7
   4  -9  -7 532.723 840.780   3
   4  -9  -6 2843.80 984.585   3
   4  -9  -6 2844.18 874.138   7
   4  -9  -5 1782.63 836.297   3
   4  -9  -5 3550.22 882.809   7
   4  -9  -4 2530.60 903.778   3
   4  -9  -4 3347.95 885.777   7
   4  -9  -3 5685.66 1059.24   3
   4  -9  -3 5882.74 1022.52   7
   4  -9  -2-414.211 657.394   3
   4  -9  -2-64.8819 662.491   7
   4  -9  -1 7649.11 1070.91   3
   4  -9  -1 7425.29 1091.43   7
   4  -9   0 1461.57 703.230   3
   4  -9   0 2244.42 821.800   7
   4  -9   1 6234.93 922.370   3
   4  -9   1 7454.95 1108.60   7
   4  -9   2 3788.03 771.770   3
   4  -9   2 5374.77 1006.73   7
   4  -9   3 9604.72 982.625   3
   4  -9   3 10361.8 1239.46   7
   4  -9   4 7763.52 856.802   3
   4  -9   4 9732.70 1222.78   7
   4  -9   5 12294.5 1365.25   7
   4  -9   6 13889.6 1422.18   7
   4  -9   7 4487.21 1033.33   7
   4  -9   8 11548.4 1324.94   7
   4  -9   9 881.909 806.604   7
   4  -9  10 6595.60 1114.19   7
   4  -9  11 1552.20 818.088   7
   4  -9  12 6983.03 1122.89   7
   4  -9  13 642.225 804.943   7
   4  -9  14 5556.32 1112.23   7
   4  -9  15 960.225 872.935   7
   4  -9  16 3600.99 1034.50   7
   4  -8 -10 1513.87 997.872   3
   4  -8  -9 4058.66 1138.29   3
   4  -8  -8 1048.54 861.151   3
   4  -8  -7 5614.10 911.592   7
   4  -8  -7 5717.32 1138.52   3
   4  -8  -6 3902.03 988.423   3
   4  -8  -6 3296.73 793.182   7
   4  -8  -5 4143.57 962.975   3
   4  -8  -5 4926.44 896.044   7
   4  -8  -4 11031.7 1276.49   3
   4  -8  -4 10906.3 1163.89   7
   4  -8  -3 1075.66 676.255   3
   4  -8  -3 2522.12 782.658   7
   4  -8  -2 12714.5 1217.87   7
   4  -8  -2 12269.6 1265.87   3
   4  -8  -1 138.605 583.940   3
   4  -8  -1 769.412 715.223   7
   4  -8   0 16841.4 1289.60   3
   4  -8   0 17709.7 1394.25   7
   4  -8   1 6037.63 879.452   3
   4  -8   1 8027.40 1097.67   7
   4  -8   2 20075.0 1265.61   3
   4  -8   2 21049.8 1507.76   7
   4  -8   3 4489.39 713.939   3
   4  -8   3 8363.38 1094.15   7
   4  -8   4 17886.3 1100.97   3
   4  -8   4 17700.8 1432.98   7
   4  -8   5 9450.28 803.500   3
   4  -8   5 10009.5 1165.33   7
   4  -8   6 12404.0 1248.40   7
   4  -8   7 7081.35 1069.26   7
   4  -8   8 3533.48 864.187   7
   4  -8   9 6494.52 1029.44   7
   4  -8  10 1429.54 760.204   7
   4  -8  11 5350.41 980.267   7
   4  -8  12 671.939 718.723   7
   4  -8  13 5517.11 983.994   7
   4  -8  14-205.810 722.785   7
   4  -8  15 3860.45 975.735   7
   4  -8  16 553.553 743.428   7
   4  -7 -13 4677.73 1272.44   2
   4  -7 -12 9747.98 1401.09   2
   4  -7 -12 7304.60 1403.72   3
   4  -7 -11 3750.84 1111.10   2
   4  -7 -11-152.054 845.384   3
   4  -7 -10 15603.5 1559.24   2
   4  -7 -10 11167.1 1500.14   3
   4  -7  -9-66.5129 749.538   3
   4  -7  -8 12268.2 1444.76   3
   4  -7  -8 12450.6 1137.29   7
   4  -7  -7 1681.37 665.422   7
   4  -7  -7 467.355 693.325   3
   4  -7  -6 8838.88 1184.47   3
   4  -7  -6 8912.51 995.626   7
   4  -7  -5 602.028 622.914   3
   4  -7  -5 1488.71 639.741   7
   4  -7  -4 5406.99 898.383   3
   4  -7  -4 6711.13 898.666   7
   4  -7  -3 9200.99 1001.04   7
   4  -7  -3 8307.32 1028.82   3
   4  -7  -2 4555.85 810.772   3
   4  -7  -2 5299.48 866.775   7
   4  -7  -1 7325.24 893.992   3
   4  -7  -1 7886.34 944.571   7
   4  -7   0 2624.97 735.410   7
   4  -7   0 1624.98 581.692   3
   4  -7   1 18077.1 1168.36   3
   4  -7   1 18367.6 1317.13   7
   4  -7   2 8324.53 991.410   7
   4  -7   2 6719.32 785.202   3
   4  -7   3 12191.1 907.886   3
   4  -7   3 11900.6 1129.26   7
   4  -7   4 2422.64 520.516   3
   4  -7   4 2843.18 752.992   7
   4  -7   5 6762.70 633.031   3
   4  -7   5 6718.74 916.441   7
   4  -7   6 5517.87 532.448   3
   4  -7   6 5921.08 923.848   7
   4  -7   7 2049.17 741.743   7
   4  -7   8 4408.18 845.970   7
   4  -7   9 7825.82 1030.20   7
   4  -7  10 18576.6 1423.45   7
   4  -7  11 2824.46 782.137   7
   4  -7  12 12266.0 1230.92   7
   4  -7  13 74.8867 692.155   7
   4  -7  14 10154.9 1191.70   7
   4  -7  15-82.6142 706.052   7
   4  -6 -14 4237.13 1199.42   2
   4  -6 -13 2339.59 1044.64   2
   4  -6 -13 2097.48 1030.27   3
   4  -6 -12 1070.76 894.096   2
   4  -6 -12 177.481 794.310   3
   4  -6 -11 5822.63 1122.85   2
   4  -6 -11 4826.04 1127.07   3
   4  -6 -10 1366.67 877.142   2
   4  -6 -10 137.230 728.651   3
   4  -6  -9 6256.29 1073.23   2
   4  -6  -9 4907.11 748.504   7
   4  -6  -9 5111.95 1044.60   3
   4  -6  -8 2913.93 939.233   2
   4  -6  -8 1115.75 588.444   7
   4  -6  -8 922.973 798.504   3
   4  -6  -7 18690.7 1435.44   2
   4  -6  -7 16039.5 1170.95   7
   4  -6  -7 15801.6 1454.54   3
   4  -6  -6 1844.26 799.678   2
   4  -6  -6 1229.92 597.626   7
   4  -6  -6-45.8886 618.579   3
   4  -6  -5 3539.92 691.369   7
   4  -6  -5 3182.01 760.257   3
   4  -6  -4 4952.45 747.387   7
   4  -6  -4 4235.98 781.644   3
   4  -6  -3 5422.07 811.303   3
   4  -6  -3 5489.47 565.346   1
   4  -6  -3 5598.20 784.034   7
   4  -6  -2 8463.27 661.397   1
   4  -6  -2 11109.6 1025.00   3
   4  -6  -2 9970.74 976.706   7
   4  -6  -1 160.173 191.269   4
   4  -6  -1 2322.83 719.950   7
   4  -6  -1 1270.32 558.394   3
   4  -6   0 29961.3 1527.38   7
   4  -6   0 28585.7 1412.13   3
   4  -6   1 16229.4 1229.20   7
   4  -6   1 14755.1 1033.70   3
   4  -6   2 32689.8 1355.48   3
   4  -6   2 32525.1 1618.24   7
   4  -6   3 9688.00 776.151   3
   4  -6   3 10567.7 1063.41   7
   4  -6   4 16596.1 868.566   3
   4  -6   4 16049.0 1198.38   7
   4  -6   5 1534.62 400.644   3
   4  -6   5 2219.43 695.251   7
   4  -6   6 18161.8 725.256   3
   4  -6   6 18483.8 1272.63   7
   4  -6   7 1451.14 669.055   7
   4  -6   8 17778.9 1300.38   7
   4  -6   9 13966.2 1199.50   7
   4  -6  10 14286.9 1214.60   7
   4  -6  11 14317.0 1262.46   7
   4  -6  12 3026.80 786.999   7
   4  -6  13 4461.48 857.207   7
   4  -6  14 293.778 630.325   7
   4  -6  15 7077.89 977.180   7
   4  -5 -15 2663.62 1118.92   2
   4  -5 -15 4236.89 1250.23   3
   4  -5 -14 2964.10 1046.44   2
   4  -5 -14 3722.06 1161.75   3
   4  -5 -13 595.330 836.678   2
   4  -5 -13 1912.37 963.711   3
   4  -5 -12 4032.81 1018.15   2
   4  -5 -12 4696.72 1068.50   3
   4  -5 -11-513.187 788.023   2
   4  -5 -11-187.615 681.456   3
   4  -5 -10 6447.92 1077.27   2
   4  -5 -10 8075.88 1180.32   3
   4  -5  -9 2110.20 843.476   2
   4  -5  -9 1702.91 590.549   7
   4  -5  -9 1174.33 789.806   3
   4  -5  -8 25825.3 1636.63   2
   4  -5  -8 23924.3 1718.54   3
   4  -5  -8 25831.4 1323.69   7
   4  -5  -7 1565.61 731.212   2
   4  -5  -7 1635.27 591.784   7
   4  -5  -7 1544.48 732.543   3
   4  -5  -6 21428.8 1387.74   2
   4  -5  -6 20945.8 1495.19   3
   4  -5  -6 20612.3 1227.57   7
   4  -5  -5 694.528 602.647   2
   4  -5  -5 793.268 496.435   7
   4  -5  -5 165.287 518.116   3
   4  -5  -4 8704.98 872.325   7
   4  -5  -4 10561.5 920.381   2
   4  -5  -4 7770.18 487.085   1
   4  -5  -4 8797.75 944.029   3
   4  -5  -3 785.706 300.518   4
   4  -5  -3 910.867 283.548   1
   4  -5  -3 923.199 483.947   7
   4  -5  -3 543.957 455.998   3
   4  -5  -2 13956.6 640.420   1
   4  -5  -2 15756.3 1104.09   3
   4  -5  -2 15305.7 1071.08   7
   4  -5  -2 13074.9 581.235   4
   4  -5  -1 20853.1 1186.90   3
   4  -5  -1 20041.5 1205.97   7
   4  -5  -1 15712.5 495.739   4
   4  -5  -1 20093.9 783.507   1
   4  -5   0 16186.3 1038.58   3
   4  -5   0 18138.2 1198.34   7
   4  -5   0 14110.0 812.079   1
   4  -5   1 33414.3 1511.84   7
   4  -5   1 31781.4 1309.30   3
   4  -5   1 31311.6 1116.32   1
   4  -5   2 19123.2 983.636   3
   4  -5   2 19678.5 1243.16   7
   4  -5   3 22453.5 973.231   3
   4  -5   3 22395.4 1278.02   7
   4  -5   4 2206.64 445.019   3
   4  -5   4 3515.88 737.863   7
   4  -5   5 23613.6 844.499   3
   4  -5   5 22157.7 1298.02   7
   4  -5   6 2506.86 643.855   7
   4  -5   7 27028.8 1433.54   7
   4  -5   8 5319.34 816.987   7
   4  -5   9 17600.8 1234.98   7
   4  -5  10 14419.5 1171.73   7
   4  -5  11 11334.3 1061.87   7
   4  -5  12 6068.43 907.618   7
   4  -5  13 2808.17 723.720   7
   4  -5  14 6061.10 895.746   7
   4  -5  15-106.677 548.592   7
   4  -4 -16 1238.45 954.039   2
   4  -4 -16 4351.75 1228.53   3
   4  -4 -15-552.659 963.517   2
   4  -4 -15 1522.55 988.061   3
   4  -4 -14 542.774 836.293   2
   4  -4 -14 3493.93 1019.70   3
   4  -4 -13 3458.13 943.740   2
   4  -4 -13 6103.18 1156.08   3
   4  -4 -12 1292.27 762.165   2
   4  -4 -12 2239.20 877.691   3
   4  -4 -11 5739.14 963.623   2
   4  -4 -11 9017.65 1213.91   3
   4  -4 -10 2543.96 869.035   2
   4  -4 -10 3008.89 619.174   7
   4  -4 -10 3902.38 987.465   3
   4  -4  -9 19241.4 1389.62   2
   4  -4  -9 21133.2 1587.08   3
   4  -4  -9 20497.5 1068.61   7
   4  -4  -8 3726.56 909.181   2
   4  -4  -8 5829.62 1008.76   3
   4  -4  -8 5942.99 732.249   7
   4  -4  -7 23396.6 1382.50   2
   4  -4  -7 23096.7 1526.48   3
   4  -4  -7 23173.8 1163.14   7
   4  -4  -6-167.833 543.426   2
   4  -4  -6 90.3273 449.843   7
   4  -4  -6 211.000 510.346   3
   4  -4  -5 20482.4 1169.90   2
   4  -4  -5 19868.2 1309.35   3
   4  -4  -5 20408.2 1126.54   7
   4  -4  -4 406.446 136.684   1
   4  -4  -4 734.524 328.903   4
   4  -4  -4 1359.37 510.577   2
   4  -4  -4 1152.21 470.644   7
   4  -4  -4 1472.84 533.029   3
   4  -4  -3 30875.1 1211.48   2
   4  -4  -3 28705.7 1314.10   7
   4  -4  -3 27223.5 1386.77   3
   4  -4  -3 27784.1 942.844   4
   4  -4  -2 9241.97 700.738   2
   4  -4  -2 7958.40 810.568   3
   4  -4  -2 8411.85 826.143   7
   4  -4  -2 7257.31 479.612   4
   4  -4  -1 29996.4 1309.80   3
   4  -4  -1 29785.0 1329.06   7
   4  -4   0 33998.7 1331.73   3
   4  -4   0 37771.7 1512.94   7
   4  -4   1 31294.5 1394.37   7
   4  -4   1 28713.2 1170.69   3
   4  -4   2 40758.3 1309.55   3
   4  -4   2 41977.0 1598.87   7
   4  -4   3 7333.47 622.514   3
   4  -4   3 9895.04 950.358   7
   4  -4   4 24004.4 1234.74   7
   4  -4   5 414.522 493.606   7
   4  -4   6 21679.7 1221.84   7
   4  -4   7 1090.24 541.124   7
   4  -4   8 19349.4 1186.71   7
   4  -4   9 4384.33 720.950   7
   4  -4  10 14540.2 1089.55   7
   4  -4  11 7235.72 836.224   7
   4  -4  12 6069.21 816.663   7
   4  -4  13 6221.72 834.008   7
   4  -4  14 2318.07 639.855   7
   4  -3 -17 4172.30 1127.00   2
   4  -3 -17 9506.44 1582.50   3
   4  -3 -16 1065.84 952.663   3
   4  -3 -15 10743.2 1478.11   3
   4  -3 -14 3631.50 1028.17   3
   4  -3 -13 15045.4 1542.03   3
   4  -3 -12 5580.14 1027.94   3
   4  -3 -11 12294.8 1320.14   3
   4  -3 -11 10601.7 783.378   1
   4  -3 -10 7433.75 1045.98   3
   4  -3 -10 7071.20 655.362   7
   4  -3 -10 7796.24 635.286   1
   4  -3  -9 12593.4 1249.85   3
   4  -3  -9 12978.9 847.071   7
   4  -3  -9 11647.8 681.275   1
   4  -3  -8 5047.10 838.132   3
   4  -3  -8 5141.84 606.887   7
   4  -3  -8 4802.84 408.817   1
   4  -3  -7 5566.68 833.816   3
   4  -3  -7 4790.73 583.753   7
   4  -3  -7 4257.02 317.975   1
   4  -3  -6 13229.6 1090.00   3
   4  -3  -6 12987.3 834.727   7
   4  -3  -5 84.2706 390.278   7
   4  -3  -5 158.996 418.215   3
   4  -3  -4 10264.9 892.778   3
   4  -3  -4 10396.4 772.035   7
   4  -3  -4 11692.8 722.302   4
   4  -3  -3 2012.22 413.414   2
   4  -3  -3 2639.65 544.874   3
   4  -3  -3 2430.77 483.782   7
   4  -3  -3 3485.22 449.051   4
   4  -3  -2 22403.9 857.405   2
   4  -3  -2 23102.8 1151.84   3
   4  -3  -2 22448.3 1103.38   7
   4  -3  -1 25840.8 816.270   2
   4  -3  -1 23167.4 1136.03   3
   4  -3  -1 24918.3 1190.33   7
   4  -3   0 56507.0 1714.55   7
   4  -3   0 56408.0 1650.83   3
   4  -3   1 62420.5 1605.66   3
   4  -3   1 61022.5 1770.38   7
   4  -3   2 15713.7 893.134   3
   4  -3   2 19665.6 1185.42   7
   4  -3   3 83093.2 2076.65   7
   4  -3   4 2918.41 575.739   7
   4  -3   5 26936.7 1249.75   7
   4  -3   5 28701.3 834.266   6
   4  -3   6 1563.91 496.458   7
   4  -3   7 34549.2 1423.46   7
   4  -3   8 2649.88 655.163   7
   4  -3   9 17610.0 1065.60   7
   4  -3  10 2441.56 748.886   7
   4  -3  11 6220.46 768.530   7
   4  -3  12 3830.66 739.549   7
   4  -3  13 4688.75 691.785   7
   4  -3  14 3967.30 687.332   7
   4  -2 -18 3566.99 1220.85   3
   4  -2 -17-648.178 983.433   3
   4  -2 -16 6113.26 1232.07   3
   4  -2 -15-60.4591 817.503   3
   4  -2 -14 8156.27 1230.55   3
   4  -2 -13 2433.65 557.393   1
   4  -2 -13 4501.89 951.899   3
   4  -2 -12 10769.2 867.219   1
   4  -2 -12 14363.8 1407.78   3
   4  -2 -11 1855.83 351.954   7
   4  -2 -11 1384.11 437.206   1
   4  -2 -11 2217.43 724.529   3
   4  -2 -10 5920.32 580.636   1
   4  -2 -10 7641.69 1028.46   3
   4  -2 -10 7288.66 598.544   7
   4  -2  -9 12558.8 693.768   1
   4  -2  -9 12377.8 1138.63   3
   4  -2  -9 13703.6 778.581   7
   4  -2  -8 3609.00 395.992   1
   4  -2  -8 4373.48 782.290   3
   4  -2  -8 4251.67 535.630   7
   4  -2  -7 20036.7 643.714   1
   4  -2  -7 20304.2 1310.72   3
   4  -2  -7 21074.6 985.485   7
   4  -2  -6 17.1620 424.461   3
   4  -2  -6 689.998 390.927   7
   4  -2  -5 26516.4 1368.25   3
   4  -2  -5 26923.0 1119.99   7
   4  -2  -4 8717.74 805.241   3
   4  -2  -4 5975.73 616.426   7
   4  -2  -4 8581.55 665.423   4
   4  -2  -3 59930.2 1853.73   3
   4  -2  -3 58960.7 1605.90   7
   4  -2  -2 3403.23 640.676   3
   4  -2  -2 4570.76 668.166   7
   4  -2  -1 54698.3 1611.64   3
   4  -2  -1 55339.9 1563.84   7
   4  -2   0 34780.2 1277.99   3
   4  -2   0 34751.6 1280.11   7
   4  -2   1 36759.1 1317.61   7
   4  -2   2 27657.2 1160.48   7
   4  -2   3 2552.57 430.776   6
   4  -2   3 2546.81 508.312   7
   4  -2   4 60470.2 1360.50   6
   4  -2   4 55920.2 1659.92   7
   4  -2   5 9281.22 758.798   7
   4  -2   6 11425.5 848.902   7
   4  -2   7 1212.40 517.461   7
   4  -2   8 24523.9 1189.62   7
   4  -2   9 2483.82 637.192   7
   4  -2  10 10523.3 832.481   7
   4  -2  11 669.993 481.043   7
   4  -2  12 9666.98 827.448   7
   4  -2  13 2974.13 585.053   7
   4  -1 -19 3224.09 1181.26   3
   4  -1 -18 641.222 942.586   3
   4  -1 -17 7728.71 1348.36   3
   4  -1 -16 28.5384 894.620   3
   4  -1 -15 8177.17 1248.28   3
   4  -1 -14-458.156 631.767   1
   4  -1 -14 99.3282 773.293   3
   4  -1 -13 18979.8 1225.18   1
   4  -1 -13 18759.7 1590.95   3
   4  -1 -12 552.238 550.430   1
   4  -1 -12 1353.82 798.266   3
   4  -1 -11 27178.3 1243.11   1
   4  -1 -11 26212.5 1687.54   3
   4  -1 -10 2498.20 510.580   1
   4  -1 -10 2530.84 713.785   3
   4  -1  -9 2796.71 492.254   1
   4  -1  -9 2315.96 697.164   3
   4  -1  -9 3370.75 452.872   7
   4  -1  -8 15535.7 810.686   7
   4  -1  -8 14898.7 1184.25   3
   4  -1  -8 15179.1 714.803   1
   4  -1  -7 4237.67 710.464   3
   4  -1  -7 4290.78 506.325   7
   4  -1  -6 12601.7 1019.31   3
   4  -1  -6 12289.0 758.755   7
   4  -1  -5 597.780 445.754   3
   4  -1  -5 684.188 360.151   7
   4  -1  -4 52858.4 1777.63   3
   4  -1  -4 53359.3 1502.41   7
   4  -1  -3 1026.74 506.553   3
   4  -1  -3 1065.96 452.332   7
   4  -1  -2 68918.2 1890.00   3
   4  -1  -2 73402.3 1733.06   7
   4  -1  -1 32065.5 1228.34   7
   4  -1   0 71817.7 1739.20   7
   4  -1   1 9115.66 821.926   7
   4  -1   2 26288.8 1055.09   6
   4  -1   2 25616.4 1098.31   7
   4  -1   3 23902.7 996.102   6
   4  -1   3 24250.6 1083.66   7
   4  -1   4 21884.6 1046.16   7
   4  -1   5 12263.7 837.904   7
   4  -1   6 15378.5 915.176   7
   4  -1   7 9541.48 801.939   7
   4  -1   8 5046.79 651.041   7
   4  -1   9 17378.1 989.989   7
   4  -1  10 574.369 472.639   7
   4  -1  11 7551.40 701.918   7
   4  -1  12 3790.39 572.418   7
   4  -1  13 14162.9 887.245   7
   4   0 -20 1257.40 1059.04   3
   4   0 -19 2603.72 1154.82   3
   4   0 -18 3771.67 1140.61   3
   4   0 -17 1249.33 892.405   3
   4   0 -16 4748.57 929.157   1
   4   0 -16 5256.89 1094.10   3
   4   0 -15 855.056 662.060   1
   4   0 -15 654.991 753.834   3
   4   0 -14 10268.9 1054.84   1
   4   0 -14 9584.01 1202.07   3
   4   0 -13 907.023 601.124   1
   4   0 -13 364.022 688.124   3
   4   0 -12 31363.8 1848.48   3
   4   0 -12 31338.3 1459.97   1
   4   0 -11 779.796 511.155   1
   4   0 -11 342.496 587.956   3
   4   0 -10 10353.1 1071.14   3
   4   0 -10 11623.2 835.814   1
   4   0  -9 7017.21 905.275   3
   4   0  -8 8142.90 890.374   3
   4   0  -7 8889.07 896.087   3
   4   0  -7 9569.20 656.322   7
   4   0  -6 6032.13 759.329   3
   4   0  -6 6146.85 575.226   7
   4   0  -5 35976.5 1532.40   3
   4   0  -5 36383.4 1233.07   7
   4   0  -4 3176.19 490.718   7
   4   0  -3 51268.5 1443.78   7
   4   0  -2 14574.1 877.217   7
   4   0  -1 50998.7 1438.58   7
   4   0   0 5897.64 735.216   6
   4   0   0 5421.05 649.489   7
   4   0   1 23160.6 1039.48   6
   4   0   1 24375.7 1030.85   7
   4   0   2 482.699 288.743   2
   4   0   2 545.933 414.008   7
   4   0   2 616.859 431.123   6
   4   0   3 44835.8 1099.09   2
   4   0   3 45702.3 1452.87   7
   4   0   4 15995.5 912.892   7
   4   0   5 46636.6 1485.51   7
   4   0   6 25361.2 1120.75   7
   4   0   7 11270.4 807.448   7
   4   0   8 21554.5 1065.88   7
   4   0   9 3826.95 597.110   7
   4   0  10 11846.4 809.246   7
   4   0  11 69.1902 360.400   7
   4   1 -20 3947.89 1342.55   3
   4   1 -19 2702.82 1167.28   3
   4   1 -18 4027.33 1146.60   3
   4   1 -17 3722.26 929.477   1
   4   1 -17 2390.53 966.252   3
   4   1 -16 2042.59 827.095   1
   4   1 -16 1482.13 897.566   3
   4   1 -15 4426.34 873.021   1
   4   1 -15 4670.42 1008.40   3
   4   1 -14 3696.55 834.531   1
   4   1 -14 2662.38 906.959   3
   4   1 -13 12780.2 1290.31   3
   4   1 -13 13292.4 1126.97   1
   4   1 -12 1893.68 924.657   3
   4   1 -12 3027.61 804.133   1
   4   1 -11 19419.5 1424.32   3
   4   1 -10 5427.33 944.895   3
   4   1  -9 19178.1 1316.69   3
   4   1  -8 15647.0 1151.46   3
   4   1  -4 60451.6 1583.08   7
   4   1  -3 40143.6 1337.36   7
   4   1  -2 103863. 2328.40   6
   4   1  -2 104672. 2045.76   7
   4   1  -1 54254.1 1727.86   6
   4   1  -1 53450.2 1503.00   7
   4   1   0 22548.4 1172.25   6
   4   1   0 22956.7 1042.66   7
   4   1   1 16057.9 878.181   7
   4   1   2 52364.8 1342.16   2
   4   1   2 52654.9 1519.53   7
   4   1   3 12038.0 749.706   2
   4   1   3 10711.0 758.617   7
   4   1   4 48244.1 1450.55   2
   4   1   4 47681.6 1497.22   7
   4   1   5 24711.2 1104.65   7
   4   1   6 2278.47 438.088   7
   4   2 -18 5220.95 1149.91   1
   4   2 -17 4910.06 1062.92   1
   4   2 -16 3936.36 975.244   1
   4   2 -15 5592.03 1021.59   1
   4   2  -5 11044.0 955.733   6
   4   2  -4 31048.1 1422.59   6
   4   2  -3 40179.5 1603.77   6
   4   2  -2 15824.0 1116.54   6
   4   2  -1 46006.6 1659.50   6
   4   3  -8 174.006 574.456   6
   4   3  -7 59789.8 2095.10   6
   4   3  -6 14929.9 1127.04   6
   4   3  -5 47491.4 1815.43   6
   4   3  -4 12776.6 1066.22   6
   4   3  -3 30295.2 1504.24   6
   4   4 -13 3693.82 912.496   6
   4   4 -12 12505.5 1206.87   6
   4   4 -11 2153.93 810.008   6
   4   4 -10 26423.0 1588.89   6
   4   4  -9 769.897 658.132   6
   4   4  -8 56638.7 2124.78   6
   4   4  -7 2341.13 693.221   6
   4   4  -6 29179.8 1555.25   6
   4   4  -5 6415.27 896.778   6
   4   5 -17 2638.92 994.528   6
   4   5 -16 12072.9 1385.20   6
   4   5 -15 1292.68 827.715   6
   4   5 -14 6894.02 1067.61   6
   4   5 -13 4269.75 922.879   6
   4   5 -12 9099.60 1180.40   6
   4   5 -11 15153.1 1307.19   6
   4   5 -10 4911.14 922.448   6
   4   5  -9 20516.6 1419.26   6
   4   5  -8 4509.35 843.184   6
   4   6 -16 106.511 761.812   6
   4   6 -15 4543.16 992.111   6
   4   6 -14 737.703 748.208   6
   4   6 -13 3726.41 901.588   6
   4   6 -12 2114.94 808.863   6
   5 -11  -3 6576.64 1255.27   7
   5 -11  -3 5662.23 1268.19   3
   5 -11  -2 2640.67 1036.66   7
   5 -11  -2 2305.04 1029.76   3
   5 -11  -1 7053.09 1282.04   3
   5 -11  -1 6548.55 1247.75   7
   5 -11   0 2449.87 1020.76   7
   5 -11   1 3540.64 1061.36   7
   5 -11   2 2274.59 1003.75   7
   5 -11   3 2606.83 986.965   7
   5 -11   4 4785.84 1149.99   7
   5 -10  -6 5018.92 1079.75   7
   5 -10  -5 21.3696 774.851   7
   5 -10  -5 699.776 931.047   3
   5 -10  -4 3674.38 974.116   7
   5 -10  -4 3669.01 1087.22   3
   5 -10  -3 387.432 783.056   7
   5 -10  -3-325.498 781.721   3
   5 -10  -2 4303.44 1023.84   7
   5 -10  -2 3660.98 1020.43   3
   5 -10  -1 2672.28 933.198   7
   5 -10  -1 1527.68 835.653   3
   5 -10   0 4558.47 1070.35   7
   5 -10   0 4103.45 1001.36   3
   5 -10   1 4175.14 1047.85   7
   5 -10   1 5355.00 1004.38   3
   5 -10   2 3884.08 1037.54   7
   5 -10   3 9141.90 1301.54   7
   5 -10   4 5876.73 1174.48   7
   5 -10   5 17218.7 1672.26   7
   5 -10   6 4807.87 1205.13   7
   5 -10   7 12839.6 1523.48   7
   5 -10   8 420.422 877.375   7
   5 -10   9 9305.00 1335.64   7
   5 -10  10 2107.66 947.238   7
   5 -10  11 5330.73 1196.97   7
   5 -10  12 2134.81 982.031   7
   5 -10  13 1477.82 941.742   7
   5  -9  -7 7253.53 1392.94   3
   5  -9  -6 1.31946 692.697   7
   5  -9  -6-54.4295 838.467   3
   5  -9  -5 6668.78 1098.73   7
   5  -9  -5 6184.76 1156.95   3
   5  -9  -4 702.267 756.650   7
   5  -9  -4 321.996 736.335   3
   5  -9  -3 7945.39 1203.53   3
   5  -9  -3 7613.50 1144.23   7
   5  -9  -2 100.122 724.703   7
   5  -9  -2 279.739 719.601   3
   5  -9  -1 7269.34 1082.44   3
   5  -9  -1 7486.54 1152.84   7
   5  -9   0 2388.81 882.963   7
   5  -9   0 2430.75 816.217   3
   5  -9   1 8359.09 1066.62   3
   5  -9   1 8470.03 1178.55   7
   5  -9   2 5505.31 879.566   3
   5  -9   2 5641.68 1046.64   7
   5  -9   3 7311.18 1150.10   7
   5  -9   4 10839.1 1307.71   7
   5  -9   5 3628.87 1042.32   7
   5  -9   6 14121.8 1473.59   7
   5  -9   7 1219.32 871.123   7
   5  -9   8 9701.19 1303.61   7
   5  -9   9 226.761 766.215   7
   5  -9  10 3652.78 980.438   7
   5  -9  11 1845.21 862.080   7
   5  -9  12 3556.58 991.235   7
   5  -9  13 1000.83 902.256   7
   5  -9  14 1661.09 931.681   7
   5  -9  15 720.810 879.867   7
   5  -9  16 2791.25 1017.95   7
   5  -8  -9 3105.77 1135.24   3
   5  -8  -8 4692.12 1157.90   3
   5  -8  -7 922.910 707.063   7
   5  -8  -7 442.662 823.120   3
   5  -8  -6 6992.34 1041.57   7
   5  -8  -6 6559.20 1198.85   3
   5  -8  -5 11.0663 647.723   7
   5  -8  -5 123.323 741.463   3
   5  -8  -4 7265.96 1068.46   7
   5  -8  -4 7238.52 1148.04   3
   5  -8  -3 281.817 655.787   7
   5  -8  -3 43.4467 646.595   3
   5  -8  -2 6982.85 1034.11   3
   5  -8  -2 6516.82 1029.34   7
   5  -8  -1 1015.88 745.672   7
   5  -8  -1 905.757 692.599   3
   5  -8   0 12687.4 1196.95   3
   5  -8   0 12934.2 1290.30   7
   5  -8   1 9007.83 1012.14   3
   5  -8   1 9208.18 1170.58   7
   5  -8   2 17323.7 1479.00   7
   5  -8   2 15739.6 1210.19   3
   5  -8   3 14528.7 1108.19   3
   5  -8   3 15276.7 1415.32   7
   5  -8   4 8886.96 885.101   3
   5  -8   4 9593.58 1216.04   7
   5  -8   5 10882.0 1281.98   7
   5  -8   6 4407.55 999.901   7
   5  -8   7 13399.9 1352.95   7
   5  -8   8 627.949 692.252   7
   5  -8   9 7872.48 1125.48   7
   5  -8  10 765.179 739.925   7
   5  -8  11 5951.73 1081.35   7
   5  -8  12 430.460 743.384   7
   5  -8  13 5336.82 1051.61   7
   5  -8  14 286.173 777.453   7
   5  -8  15 3146.37 968.832   7
   5  -7 -13 2852.89 1132.90   2
   5  -7 -12 7788.55 1336.97   2
   5  -7 -11 5064.67 1158.20   2
   5  -7 -11 1750.49 1079.92   3
   5  -7 -10 8881.92 1291.52   2
   5  -7 -10 6716.30 1309.54   3
   5  -7  -9 2154.19 957.050   3
   5  -7  -8 6195.17 937.131   7
   5  -7  -8 6193.37 1195.32   3
   5  -7  -7 4650.66 841.546   7
   5  -7  -7 3626.66 993.830   3
   5  -7  -6 3239.53 785.864   7
   5  -7  -6 3683.45 943.948   3
   5  -7  -5 5304.27 912.399   7
   5  -7  -5 4831.60 986.176   3
   5  -7  -4 408.486 616.648   7
   5  -7  -4 453.624 637.716   3
   5  -7  -3 7527.88 1022.83   3
   5  -7  -3 6899.98 958.117   7
   5  -7  -2 634.349 654.982   7
   5  -7  -2 1207.51 653.608   3
   5  -7  -1 10061.2 1085.03   3
   5  -7  -1 9703.51 1089.27   7
   5  -7   0 5534.47 852.029   3
   5  -7   0 5190.70 904.821   7
   5  -7   1 21155.0 1327.99   3
   5  -7   1 20330.2 1462.63   7
   5  -7   2 14979.4 1095.92   3
   5  -7   2 14791.3 1297.81   7
   5  -7   3 14178.4 1015.97   3
   5  -7   3 13516.1 1269.45   7
   5  -7   4 7832.64 794.975   3
   5  -7   4 9711.35 1134.16   7
   5  -7   5 7601.18 720.840   3
   5  -7   5 7896.58 1047.82   7
   5  -7   6 13530.7 1275.40   7
   5  -7   7 4890.49 889.763   7
   5  -7   8 8789.41 1125.64   7
   5  -7   9 2524.13 822.054   7
   5  -7  10 15520.8 1414.72   7
   5  -7  11 1021.40 766.295   7
   5  -7  12 7451.92 1074.91   7
   5  -7  13 858.862 809.052   7
   5  -7  14 2979.38 872.767   7
   5  -7  15 1022.84 820.103   7
   5  -6 -14 1321.79 1018.70   2
   5  -6 -13 3686.44 1098.70   2
   5  -6 -12 903.473 913.314   2
   5  -6 -12 613.160 973.765   3
   5  -6 -11 4597.66 1072.75   2
   5  -6 -11 3760.88 1122.25   3
   5  -6 -10 233.423 771.267   2
   5  -6 -10 345.940 800.965   3
   5  -6  -9 7609.14 1131.97   2
   5  -6  -9 6238.64 1197.19   3
   5  -6  -9 5969.04 855.247   7
   5  -6  -8 1675.09 799.323   2
   5  -6  -8 705.028 540.975   7
   5  -6  -8 1410.29 825.068   3
   5  -6  -7 9454.43 1244.99   3
   5  -6  -7 11680.4 1202.44   2
   5  -6  -7 9738.87 1003.68   7
   5  -6  -6 9429.89 1074.16   2
   5  -6  -6 6593.51 1054.12   3
   5  -6  -6 6700.65 908.986   7
   5  -6  -5 3177.18 739.674   7
   5  -6  -5 3138.89 801.987   3
   5  -6  -4 8394.38 1064.66   3
   5  -6  -4 8611.50 1003.02   7
   5  -6  -3 530.112 612.489   7
   5  -6  -3 480.966 587.300   3
   5  -6  -2 14765.8 1211.67   3
   5  -6  -2 12995.1 1144.39   7
   5  -6  -1 2239.89 671.944   3
   5  -6  -1 2557.71 766.573   7
   5  -6   0 21361.7 1297.00   3
   5  -6   0 20694.1 1369.73   7
   5  -6   1 17871.2 1169.08   3
   5  -6   1 17119.5 1299.34   7
   5  -6   2 34657.3 1483.86   3
   5  -6   2 35403.2 1768.60   7
   5  -6   3 7836.55 792.953   3
   5  -6   3 9416.63 1062.62   7
   5  -6   4 9950.14 790.594   3
   5  -6   4 11238.2 1117.28   7
   5  -6   5 8258.99 692.673   3
   5  -6   5 7101.08 943.464   7
   5  -6   6 10785.1 1105.49   7
   5  -6   7 7079.55 988.383   7
   5  -6   8 5564.16 943.523   7
   5  -6   9 17084.5 1380.52   7
   5  -6  10 2123.31 803.503   7
   5  -6  11 22255.0 1532.58   7
   5  -6  12 459.036 675.802   7
   5  -6  13 5611.87 955.359   7
   5  -6  14 13.8984 674.983   7
   5  -6  15 4829.26 965.532   7
   5  -5 -15 57.3798 975.891   2
   5  -5 -14 1914.45 994.712   2
   5  -5 -14 2921.87 1119.89   3
   5  -5 -13-424.962 875.245   2
   5  -5 -13 1623.50 953.399   3
   5  -5 -12 3288.07 975.741   2
   5  -5 -12 5122.49 1125.81   3
   5  -5 -11-784.600 827.843   2
   5  -5 -11 1209.11 872.071   3
   5  -5 -10 4398.98 948.560   2
   5  -5 -10 4893.94 1059.64   3
   5  -5  -9 1407.39 795.924   2
   5  -5  -9 1390.64 603.257   7
   5  -5  -9 1636.55 850.794   3
   5  -5  -8 13482.4 1257.34   2
   5  -5  -8 13051.0 1371.31   3
   5  -5  -8 13233.6 1055.72   7
   5  -5  -7 3399.50 845.293   2
   5  -5  -7 2971.96 672.881   7
   5  -5  -7 3666.20 906.495   3
   5  -5  -6 11733.3 1063.45   2
   5  -5  -6 12167.4 1034.46   7
   5  -5  -6 11826.6 1234.47   3
   5  -5  -5 12960.3 1052.89   2
   5  -5  -5 12113.7 1211.24   3
   5  -5  -5 13140.4 1076.70   7
   5  -5  -4 2267.61 610.385   2
   5  -5  -4 1487.18 639.459   3
   5  -5  -4 1683.88 614.088   7
   5  -5  -3 12330.5 1049.57   7
   5  -5  -3 12996.8 1118.78   3
   5  -5  -2 1542.97 583.079   3
   5  -5  -2 1630.60 652.007   7
   5  -5  -1 29091.2 1485.50   3
   5  -5  -1 30731.4 1555.54   7
   5  -5   0 19561.0 1217.79   3
   5  -5   0 20684.3 1387.71   7
   5  -5   1 70541.6 2073.10   3
   5  -5   1 69412.6 2298.87   7
   5  -5   2 18671.3 1100.53   3
   5  -5   2 20922.9 1387.82   7
   5  -5   3 35400.3 1345.73   3
   5  -5   3 35727.8 1712.26   7
   5  -5   4 4424.23 838.872   7
   5  -5   5 19524.9 1308.01   7
   5  -5   6 2718.57 378.176   6
   5  -5   6 3063.90 733.697   7
   5  -5   7 17054.2 1279.94   7
   5  -5   8 10151.6 1058.63   7
   5  -5   9 8154.79 978.667   7
   5  -5  10 19461.5 1386.33   7
   5  -5  11 1124.79 649.904   7
   5  -5  12 8745.96 1022.05   7
   5  -5  13 302.065 659.539   7
   5  -5  14 2830.19 745.409   7
   5  -4 -16 636.015 972.474   2
   5  -4 -15 2118.94 954.726   2
   5  -4 -15 4305.01 1237.85   3
   5  -4 -14 565.352 866.016   2
   5  -4 -14 3531.15 1125.16   3
   5  -4 -13 2210.67 912.197   2
   5  -4 -13 6028.48 1228.93   3
   5  -4 -12-1455.85 850.451   2
   5  -4 -12 844.048 884.757   3
   5  -4 -11 3941.79 901.559   2
   5  -4 -11 6936.61 1175.99   3
   5  -4 -10-14.8866 685.409   2
   5  -4 -10 673.097 527.641   7
   5  -4 -10 1309.13 828.019   3
   5  -4  -9 17605.5 1341.50   2
   5  -4  -9 21178.0 1661.99   3
   5  -4  -9 20939.0 1211.14   7
   5  -4  -8 745.584 660.774   2
   5  -4  -8 2246.44 628.509   7
   5  -4  -8 2224.33 798.752   3
   5  -4  -7 24529.8 1420.81   2
   5  -4  -7 28004.1 1737.81   3
   5  -4  -7 28535.6 1402.57   7
   5  -4  -6 6283.08 779.545   2
   5  -4  -6 8370.78 1028.83   3
   5  -4  -6 7730.34 819.919   7
   5  -4  -5 13983.8 985.902   2
   5  -4  -5 15235.8 1236.01   3
   5  -4  -5 14086.9 1030.75   7
   5  -4  -4 9190.38 777.323   2
   5  -4  -4 8829.64 949.796   3
   5  -4  -4 8948.04 863.707   7
   5  -4  -3 16437.1 900.591   2
   5  -4  -3 15012.3 1132.45   3
   5  -4  -3 14391.4 1047.91   7
   5  -4  -2 21309.3 896.143   2
   5  -4  -2 20859.6 1267.48   3
   5  -4  -2 18818.8 1168.27   7
   5  -4  -1 8156.52 871.558   3
   5  -4  -1 9415.65 953.285   7
   5  -4   0 34878.2 1508.88   3
   5  -4   0 32596.0 1497.97   7
   5  -4   1 16794.2 1048.44   3
   5  -4   1 17953.1 1200.80   7
   5  -4   2 25380.4 1170.38   3
   5  -4   2 26022.4 1377.98   7
   5  -4   3 9216.32 972.758   7
   5  -4   4 27871.6 1438.56   7
   5  -4   5 2414.91 641.318   7
   5  -4   6 10167.6 969.649   7
   5  -4   7 7665.50 872.522   7
   5  -4   8 8308.08 914.983   7
   5  -4   9 10896.9 1034.84   7
   5  -4  10 6730.43 904.858   7
   5  -4  11 10909.8 1068.87   7
   5  -4  12 656.681 622.314   7
   5  -4  13 4572.61 812.083   7
   5  -4  14-353.459 579.220   7
   5  -3 -16 623.617 1014.78   3
   5  -3 -15 6876.98 1372.71   3
   5  -3 -14 2658.75 1020.27   3
   5  -3 -13 4820.87 1112.85   3
   5  -3 -12 5858.17 1106.16   3
   5  -3 -11 1904.75 855.321   3
   5  -3 -10 8899.16 1187.22   3
   5  -3 -10 8750.09 789.397   7
   5  -3  -9 725.739 465.808   7
   5  -3  -9 942.297 673.607   3
   5  -3  -8 19210.8 1469.55   3
   5  -3  -8 19283.5 1107.37   7
   5  -3  -7 1241.97 647.326   3
   5  -3  -7 536.269 471.481   7
   5  -3  -6 14754.9 1249.25   3
   5  -3  -6 14682.0 1011.78   7
   5  -3  -5 6877.04 870.303   3
   5  -3  -5 5981.45 705.881   7
   5  -3  -4 14992.1 1150.80   3
   5  -3  -4 14023.6 974.093   7
   5  -3  -3 14582.7 1097.54   3
   5  -3  -3 13343.5 968.932   7
   5  -3  -2 9661.03 584.665   2
   5  -3  -2 11533.5 963.227   3
   5  -3  -2 11140.5 904.673   7
   5  -3  -1 31581.0 824.068   2
   5  -3  -1 33887.4 1471.43   3
   5  -3  -1 32649.7 1415.46   7
   5  -3   0 15316.3 1012.68   3
   5  -3   0 16752.7 1091.09   7
   5  -3   1 26317.4 1225.90   3
   5  -3   1 25702.9 1302.97   7
   5  -3   2 11485.0 980.182   7
   5  -3   3 45345.4 1680.35   7
   5  -3   4 3078.20 558.023   6
   5  -3   4 3125.59 669.038   7
   5  -3   5 22834.1 1262.32   7
   5  -3   5 25298.6 986.648   6
   5  -3   6 6116.90 777.473   7
   5  -3   7 6640.90 809.594   7
   5  -3   8 4063.65 709.909   7
   5  -3   9 10480.1 975.083   7
   5  -3  10 4492.23 772.716   7
   5  -3  11 11219.2 1011.71   7
   5  -3  12 6290.56 844.277   7
   5  -3  13 2169.96 645.717   7
   5  -3  14 8257.58 915.461   7
   5  -2 -17 182.026 975.215   3
   5  -2 -16 4114.33 1208.59   3
   5  -2 -15 176.238 918.542   3
   5  -2 -14 8684.57 1359.09   3
   5  -2 -13 12802.9 1476.50   3
   5  -2 -12 350.289 722.793   3
   5  -2 -11 12667.5 1390.32   3
   5  -2 -11 12614.0 829.747   7
   5  -2 -10-83.8591 629.166   3
   5  -2 -10 290.385 397.984   7
   5  -2  -9 9358.04 1117.17   3
   5  -2  -9 9370.70 766.858   7
   5  -2  -8 185.815 583.415   3
   5  -2  -8 486.979 436.225   7
   5  -2  -7 19284.8 1410.37   3
   5  -2  -7 19397.6 1075.49   7
   5  -2  -6-340.893 576.546   3
   5  -2  -6 103.673 412.386   7
   5  -2  -5 26591.6 1514.56   3
   5  -2  -5 25303.6 1227.95   7
   5  -2  -4 6229.91 802.681   3
   5  -2  -4 6626.58 720.861   7
   5  -2  -3 22589.4 1286.26   3
   5  -2  -3 22271.0 1153.20   7
   5  -2  -2 20442.3 1209.13   3
   5  -2  -2 23719.9 1220.01   7
   5  -2  -1 47643.5 1703.46   3
   5  -2  -1 47470.6 1653.45   7
   5  -2   0 35377.3 1455.77   7
   5  -2   1 18970.7 1170.84   7
   5  -2   2 34666.3 1445.59   7
   5  -2   3 1779.83 513.162   6
   5  -2   3 2140.43 583.165   7
   5  -2   4 44270.8 1403.68   6
   5  -2   4 44983.5 1661.55   7
   5  -2   5 17.0245 448.690   7
   5  -2   6 17216.4 1100.17   7
   5  -2   7 149.027 459.111   7
   5  -2   8 10616.4 922.952   7
   5  -2   9 641.416 518.649   7
   5  -2  10 16758.2 1143.69   7
   5  -2  11 1606.50 576.444   7
   5  -2  12 8557.60 869.392   7
   5  -2  13 14735.9 1090.94   7
   5  -1 -18-669.974 1029.41   3
   5  -1 -17 6539.90 1384.48   3
   5  -1 -16-498.840 928.336   3
   5  -1 -15 8489.16 1343.38   3
   5  -1 -14 6129.63 1163.91   3
   5  -1 -13 3685.47 1027.76   3
   5  -1 -12 21414.2 1696.09   3
   5  -1 -11 3201.20 920.190   3
   5  -1 -10 4627.46 562.360   7
   5  -1 -10 3959.34 872.438   3
   5  -1  -9 1455.38 658.581   3
   5  -1  -9 1244.81 425.926   7
   5  -1  -8 12936.7 1199.02   3
   5  -1  -8 13635.5 884.456   7
   5  -1  -7 7693.99 945.868   3
   5  -1  -7 7587.23 719.424   7
   5  -1  -6 31648.3 1639.86   3
   5  -1  -6 30863.9 1292.34   7
   5  -1  -5 407.072 508.001   3
   5  -1  -5 766.715 457.738   7
   5  -1  -4 55187.2 2002.12   3
   5  -1  -4 55509.9 1709.73   7
   5  -1  -3 5754.07 712.020   7
   5  -1  -2 38668.6 1443.70   7
   5  -1  -1 10864.9 896.243   7
   5  -1   0 19703.4 1084.03   7
   5  -1   1 10369.7 864.468   6
   5  -1   1 10477.0 872.908   7
   5  -1   2 3237.70 568.090   6
   5  -1   2 2595.07 553.919   7
   5  -1   3 21055.2 1066.41   6
   5  -1   3 21108.1 1126.41   7
   5  -1   4 608.248 445.432   7
   5  -1   5 33889.5 1457.40   7
   5  -1   6-8.67054 464.787   7
   5  -1   7 19890.7 1162.93   7
   5  -1   8 672.546 499.065   7
   5  -1   9 23037.2 1235.21   7
   5  -1  10 135.739 467.258   7
   5  -1  11 10480.2 913.561   7
   5  -1  12 12852.5 974.718   7
   5  -1  13 5154.63 693.283   7
   5   0 -19 1513.55 1154.25   3
   5   0 -18 3529.44 1178.69   3
   5   0 -17 134.022 939.652   3
   5   0 -16 6074.62 1267.80   3
   5   0 -15-419.345 815.283   3
   5   0 -14 5133.15 1089.70   3
   5   0 -13 5427.44 1071.80   3
   5   0 -12 9933.64 1238.79   3
   5   0 -11 5331.82 986.526   3
   5   0 -10 4732.48 907.615   3
   5   0  -9 4656.79 872.630   3
   5   0  -8 6908.36 947.287   3
   5   0  -8 7253.02 675.246   7
   5   0  -7 21061.4 1401.04   3
   5   0  -7 20314.8 1043.19   7
   5   0  -6 2601.47 495.041   7
   5   0  -5 55615.4 1697.50   7
   5   0  -4 9805.85 812.110   7
   5   0  -3 57755.6 1708.91   7
   5   0  -2 16908.0 1062.74   7
   5   0  -1 47315.1 1729.29   6
   5   0  -1 47891.2 1583.43   7
   5   0   0 7401.79 905.645   6
   5   0   0 8507.38 841.019   7
   5   0   1 31973.7 1373.45   6
   5   0   1 32553.9 1348.31   7
   5   0   2 19451.6 754.823   2
   5   0   2 20829.0 1125.28   7
   5   0   2 20754.6 1147.15   6
   5   0   3 14270.3 687.276   2
   5   0   3 16204.8 1013.70   7
   5   0   4 30187.9 1357.58   7
   5   0   5 12782.5 942.462   7
   5   0   6 29166.1 1338.27   7
   5   0   7-28.4464 441.319   7
   5   0   8 21283.9 1165.87   7
   5   0   9-50.0826 406.161   7
   5   0  10 7360.82 757.836   7
   5   0  11 1442.40 512.897   7
   5   1 -18 393.036 916.788   3
   5   1 -17 5445.30 1249.78   3
   5   1 -16 758.615 865.417   3
   5   1 -15 5582.20 1145.00   3
   5   1 -14 2652.75 924.915   3
   5   1 -13 29604.3 1983.29   3
   5   1 -12 8041.95 1160.57   3
   5   1  -5 7684.00 719.217   7
   5   1  -4 33297.8 1330.81   7
   5   1  -3 9533.54 942.936   6
   5   1  -3 8258.45 739.232   7
   5   1  -2 26169.6 1412.63   6
   5   1  -2 22422.2 1105.74   7
   5   1  -1 5632.86 862.882   6
   5   1  -1 5962.24 699.442   7
   5   1   0 15816.2 1081.93   6
   5   1   0 15584.4 953.467   7
   5   1   1 4711.72 622.398   7
   5   1   2 3732.88 511.657   2
   5   1   2 3394.00 580.004   7
   5   1   3 29414.3 1155.36   2
   5   1   3 29024.1 1284.44   7
   5   1   4 18581.3 1081.79   7
   5   1   5 47172.8 1659.89   7
   5   1   6 457.570 433.255   7
   5   1   7 29508.2 1330.72   7
   5   2  -5 23067.6 1394.48   6
   5   2  -4 4066.58 846.235   6
   5   2  -3 50994.9 1934.56   6
   5   2  -2 12424.5 1099.16   6
   5   2  -1 41361.2 1729.78   6
   5   3  -9 15751.3 1316.40   6
   5   3  -8 9256.33 1052.48   6
   5   3  -7 18965.1 1399.90   6
   5   3  -6 20819.6 1413.47   6
   5   3  -5 15490.7 1222.71   6
   5   3  -4 25136.1 1521.34   6
   5   3  -3 17452.8 1269.19   6
   5   4 -15 4996.13 1096.76   6
   5   4 -14 7904.79 1173.90   6
   5   4 -13-445.291 823.674   6
   5   4 -12 14348.7 1387.30   6
   5   4 -11 2231.31 846.567   6
   5   4 -10 22737.3 1659.84   6
   5   4  -9 1960.95 776.673   6
   5   4  -8 21786.8 1503.62   6
   5   4  -7 5381.61 897.786   6
   5   4  -6 18893.6 1391.89   6
   5   4  -5 7567.50 1010.92   6
   5   5 -18 2675.99 1084.63   6
   5   5 -17 7844.26 1355.41   6
   5   5 -16 1382.14 946.707   6
   5   5 -15 6412.21 1187.39   6
   5   5 -14 1561.95 895.042   6
   5   5 -13 7591.31 1182.66   6
   5   5 -12 1906.13 885.556   6
   5   5 -11 21581.1 1623.33   6
   5   5 -10 578.385 744.202   6
   5   5  -9 40757.6 2076.66   6
   5   5  -8 137.318 671.594   6
   5   6 -17 2775.63 1049.26   6
   5   6 -16 965.244 874.506   6
   5   6 -15 6333.67 1149.18   6
   5   6 -14 472.032 771.811   6
   5   6 -13 8768.51 1213.79   6
   5   6 -12 4224.24 1011.48   6
   5   6 -11 7175.90 1138.74   6
   6 -11  -3 1364.79 1027.77   3
   6 -10  -5 792.224 962.927   3
   6 -10  -5 1025.84 873.171   7
   6 -10  -4 1420.68 982.649   3
   6 -10  -4 1096.53 912.757   7
   6 -10  -3 4710.10 1164.58   3
   6 -10  -3 5377.03 1150.69   7
   6 -10  -2 711.286 877.512   3
   6 -10  -2 2174.22 1023.52   7
   6 -10  -1 7303.98 1262.94   3
   6 -10  -1 6840.82 1235.73   7
   6 -10   0 3629.93 1056.18   7
   6 -10   1 11903.4 1487.43   7
   6 -10   2 3631.93 1071.88   7
   6 -10   3 10519.8 1414.53   7
   6 -10   4 4578.19 1127.72   7
   6 -10   5 9731.13 1403.45   7
   6 -10   6 2076.27 1030.65   7
   6 -10   7 7360.58 1296.64   7
   6 -10   8-79.4873 859.413   7
   6 -10   9 4024.02 1141.72   7
   6  -9  -7 7238.36 1427.03   3
   6  -9  -6 1738.11 883.615   7
   6  -9  -6 1054.04 971.347   3
   6  -9  -5 1808.20 958.102   3
   6  -9  -5 1233.99 783.937   7
   6  -9  -4 1915.42 964.224   3
   6  -9  -4 726.487 772.477   7
   6  -9  -3 1976.86 913.917   3
   6  -9  -3 3239.14 994.376   7
   6  -9  -2 3045.11 927.995   3
   6  -9  -2 2233.12 933.759   7
   6  -9  -1 6015.27 1087.01   3
   6  -9  -1 6344.96 1153.09   7
   6  -9   0 6627.75 1093.20   3
   6  -9   0 6343.89 1141.18   7
   6  -9   1 3524.34 880.937   3
   6  -9   1 5563.59 1109.33   7
   6  -9   2 11369.0 1350.36   7
   6  -9   3 4202.59 1031.41   7
   6  -9   4 10588.3 1335.84   7
   6  -9   5 1652.66 957.064   7
   6  -9   6 9054.87 1295.39   7
   6  -9   7 678.941 853.249   7
   6  -9   8 5952.45 1200.81   7
   6  -9   9 415.767 811.092   7
   6  -9  10 2768.53 998.884   7
   6  -9  11 2617.74 1001.99   7
   6  -9  12 544.516 841.335   7
   6  -9  13 2133.13 974.347   7
   6  -9  14 838.390 862.088   7
   6  -8  -8 6405.77 1323.60   3
   6  -8  -7 691.178 879.130   3
   6  -8  -7 564.807 707.344   7
   6  -8  -6 3698.32 1071.36   3
   6  -8  -6 3291.62 878.492   7
   6  -8  -5 1795.31 911.826   3
   6  -8  -5 1173.85 727.142   7
   6  -8  -4 3658.86 977.667   3
   6  -8  -4 3297.32 899.827   7
   6  -8  -3 988.264 770.989   3
   6  -8  -3 1001.90 780.729   7
   6  -8  -2 10278.9 1267.82   3
   6  -8  -2 11491.2 1327.84   7
   6  -8  -1 5698.77 1034.13   3
   6  -8  -1 5701.11 1062.93   7
   6  -8   0 13225.0 1287.61   3
   6  -8   0 12418.4 1351.31   7
   6  -8   1 10900.3 1153.80   3
   6  -8   1 11005.6 1313.58   7
   6  -8   2 8531.86 1050.49   3
   6  -8   2 8462.39 1188.88   7
   6  -8   3 14936.8 1451.18   7
   6  -8   4 3536.72 1005.16   7
   6  -8   5 10826.2 1319.71   7
   6  -8   6 321.979 779.744   7
   6  -8   7 11048.6 1337.02   7
   6  -8   8 330.801 740.223   7
   6  -8   9 6669.79 1144.62   7
   6  -8  10 1639.11 849.746   7
   6  -8  11 4288.96 1056.87   7
   6  -8  12 1891.47 899.102   7
   6  -8  13 2127.01 914.294   7
   6  -8  14 2876.41 991.111   7
   6  -8  15 2121.54 933.049   7
   6  -7 -12 6758.58 1283.58   2
   6  -7 -11 4507.82 1128.74   2
   6  -7 -10 6225.87 1181.19   2
   6  -7 -10 2689.12 1142.45   3
   6  -7  -9 4716.10 1243.12   3
   6  -7  -8 1235.23 907.384   3
   6  -7  -8 511.634 633.699   7
   6  -7  -7 5759.67 967.809   7
   6  -7  -7 5614.75 1131.71   3
   6  -7  -6 257.890 745.948   3
   6  -7  -6 236.804 667.617   7
   6  -7  -5 8297.79 1237.54   3
   6  -7  -5 7243.63 1031.58   7
   6  -7  -4 623.498 719.207   3
   6  -7  -4 94.2249 661.562   7
   6  -7  -3 9246.83 1178.68   3
   6  -7  -3 8183.81 1105.20   7
   6  -7  -2 1591.54 757.689   3
   6  -7  -2 978.941 740.159   7
   6  -7  -1 20193.1 1482.08   3
   6  -7  -1 18640.5 1480.59   7
   6  -7   0 11453.5 1163.98   3
   6  -7   0 11108.8 1261.66   7
   6  -7   1 18476.1 1348.21   3
   6  -7   1 19542.1 1538.64   7
   6  -7   2 14720.6 1194.62   3
   6  -7   2 16973.2 1458.66   7
   6  -7   3 10527.4 1003.25   3
   6  -7   3 11343.4 1279.22   7
   6  -7   4 9504.94 912.130   3
   6  -7   4 9489.64 1191.38   7
   6  -7   5 4644.93 974.133   7
   6  -7   6 11246.0 1291.04   7
   6  -7   7 411.531 687.868   7
   6  -7   8 7709.90 1129.48   7
   6  -7   9 237.970 690.143   7
   6  -7  10 2684.51 867.046   7
   6  -7  11 2732.46 923.278   7
   6  -7  12 4411.38 974.908   7
   6  -7  13 5076.07 1031.09   7
   6  -7  14 2252.95 881.098   7
   6  -7  15 4121.88 1031.42   7
   6  -6 -14 2212.06 1084.28   2
   6  -6 -13 2605.97 1037.27   2
   6  -6 -12 1194.61 938.937   2
   6  -6 -12 1631.06 1078.79   3
   6  -6 -11 4864.63 1094.41   2
   6  -6 -11 4174.73 1218.54   3
   6  -6 -10 4191.44 1011.20   2
   6  -6 -10 2616.32 1049.37   3
   6  -6  -9 3894.49 938.896   2
   6  -6  -9 3312.45 1030.31   3
   6  -6  -8 7008.00 1049.07   2
   6  -6  -8 6597.13 1192.11   3
   6  -6  -8 5828.99 917.219   7
   6  -6  -7 3353.34 834.425   2
   6  -6  -7 2161.93 880.704   3
   6  -6  -7 2437.57 705.124   7
   6  -6  -6 11231.2 1104.78   2
   6  -6  -6 11697.5 1352.11   3
   6  -6  -6 10278.5 1097.38   7
   6  -6  -5 354.285 661.602   3
   6  -6  -5 125.286 580.152   7
   6  -6  -4 15269.7 1408.99   3
   6  -6  -4 13789.7 1250.99   7
   6  -6  -3 686.678 626.445   3
   6  -6  -3-261.510 591.829   7
   6  -6  -2 14568.5 1290.51   3
   6  -6  -2 13558.8 1240.05   7
   6  -6  -1 1686.18 681.807   3
   6  -6  -1 2151.67 765.708   7
   6  -6   0 21045.3 1408.57   3
   6  -6   0 20629.3 1473.48   7
   6  -6   1 16807.6 1260.50   3
   6  -6   1 17943.3 1409.94   7
   6  -6   2 21144.8 1314.80   3
   6  -6   2 20749.3 1512.16   7
   6  -6   3 10634.5 959.827   3
   6  -6   3 10755.0 1171.87   7
   6  -6   4 5314.86 965.340   7
   6  -6   5 14059.4 1297.04   7
   6  -6   6 1370.90 727.619   7
   6  -6   7 14114.0 1330.14   7
   6  -6   8 591.235 693.643   7
   6  -6   9 12420.5 1251.95   7
   6  -6  10 349.009 661.614   7
   6  -6  11 13639.8 1313.52   7
   6  -6  12 4961.44 981.957   7
   6  -6  13 6860.68 1099.38   7
   6  -6  14 2195.81 855.507   7
   6  -6  15 2257.95 860.924   7
   6  -5 -15-672.474 1021.92   2
   6  -5 -14 641.321 923.456   2
   6  -5 -13-1506.47 977.810   2
   6  -5 -13-412.236 977.944   3
   6  -5 -12 2448.27 919.268   2
   6  -5 -12 3566.86 1132.78   3
   6  -5 -11 603.047 756.245   2
   6  -5 -11 845.361 887.196   3
   6  -5 -10 4744.30 949.539   2
   6  -5 -10 6190.59 1216.86   3
   6  -5  -9 3500.67 906.561   2
   6  -5  -9 3830.64 997.455   3
   6  -5  -9 4461.47 808.496   7
   6  -5  -8 5598.09 934.731   2
   6  -5  -8 7801.24 1206.19   3
   6  -5  -8 5885.77 899.894   7
   6  -5  -7 9515.01 1036.72   2
   6  -5  -7 10443.3 1281.36   3
   6  -5  -7 10441.0 1059.50   7
   6  -5  -6 6915.30 889.795   2
   6  -5  -6 8376.79 1173.41   3
   6  -5  -6 6843.70 902.472   7
   6  -5  -5 24169.7 1332.50   2
   6  -5  -5 25236.5 1736.93   3
   6  -5  -5 22974.2 1446.61   7
   6  -5  -4 1398.20 566.941   2
   6  -5  -4 631.792 635.162   3
   6  -5  -4-21.3231 548.682   7
   6  -5  -3 17197.9 1384.87   3
   6  -5  -3 17099.4 1262.97   7
   6  -5  -2 305.921 592.100   3
   6  -5  -2 854.165 617.054   7
   6  -5  -1 11169.3 1104.46   3
   6  -5  -1 11680.9 1099.59   7
   6  -5   0 15021.6 1196.01   3
   6  -5   0 16051.7 1286.12   7
   6  -5   1 36988.5 1655.60   3
   6  -5   1 36088.5 1793.75   7
   6  -5   2 13537.7 1048.17   3
   6  -5   2 13914.9 1240.52   7
   6  -5   3 18730.5 1353.14   7
   6  -5   4 8253.43 998.073   7
   6  -5   5 6815.14 924.898   7
   6  -5   6 9318.39 684.856   6
   6  -5   6 9227.27 1046.21   7
   6  -5   7 3468.68 806.756   7
   6  -5   8 17484.1 1361.93   7
   6  -5   9 305.463 616.897   7
   6  -5  10 16444.5 1363.65   7
   6  -5  11 83.7492 653.020   7
   6  -5  12 6152.04 984.915   7
   6  -5  13 1415.47 726.232   7
   6  -5  14 1651.79 774.859   7
   6  -4 -16-1785.34 1100.89   2
   6  -4 -15 2768.86 1003.04   2
   6  -4 -14-1642.12 959.438   2
   6  -4 -14 620.470 974.945   3
   6  -4 -13 2802.59 898.831   2
   6  -4 -13 4849.06 1230.05   3
   6  -4 -12-950.748 846.065   2
   6  -4 -12-762.859 849.710   3
   6  -4 -11 4070.41 907.405   2
   6  -4 -11 6181.65 1238.01   3
   6  -4 -10 452.774 695.419   2
   6  -4 -10 2001.24 949.298   3
   6  -4 -10 2070.17 659.724   7
   6  -4  -9 6357.80 936.504   2
   6  -4  -9 9699.67 1307.58   3
   6  -4  -9 9328.39 945.990   7
   6  -4  -8 7399.51 926.005   2
   6  -4  -8 9808.84 1257.41   3
   6  -4  -8 10326.8 995.631   7
   6  -4  -7 17435.7 1227.09   2
   6  -4  -7 20367.9 1634.17   3
   6  -4  -7 20610.9 1325.20   7
   6  -4  -6 13876.9 1058.74   2
   6  -4  -6 17112.3 1468.31   3
   6  -4  -6 17339.4 1240.34   7
   6  -4  -5-293.137 542.888   2
   6  -4  -5 687.237 621.041   3
   6  -4  -5 706.418 563.989   7
   6  -4  -4 20495.2 1073.48   2
   6  -4  -4 23138.0 1583.16   3
   6  -4  -4 21953.0 1355.06   7
   6  -4  -3 617.584 425.170   2
   6  -4  -3-88.8654 555.291   3
   6  -4  -3 535.441 533.548   7
   6  -4  -2 9098.78 1013.05   3
   6  -4  -2 8233.95 912.346   7
   6  -4  -1 3820.93 755.404   3
   6  -4  -1 4320.76 806.447   7
   6  -4   0 47749.7 1872.22   3
   6  -4   0 44570.5 1850.08   7
   6  -4   1 11927.8 1018.87   3
   6  -4   1 13148.6 1138.25   7
   6  -4   2 38313.4 1765.45   7
   6  -4   3 5616.46 886.091   7
   6  -4   4 14911.2 1174.02   7
   6  -4   5 4869.88 613.841   6
   6  -4   5 4551.20 778.850   7
   6  -4   6 8526.99 990.589   7
   6  -4   7 5096.47 833.384   7
   6  -4   8 1081.99 612.827   7
   6  -4   9 15099.7 1291.19   7
   6  -4  10 179.746 615.783   7
   6  -4  11 9307.97 1100.88   7
   6  -4  12-344.313 623.135   7
   6  -4  13 5361.26 878.273   7
   6  -4  14 518.733 663.970   7
   6  -3 -15 1416.87 1083.17   3
   6  -3 -14 7631.39 1397.28   3
   6  -3 -13 762.702 878.937   3
   6  -3 -12 8390.52 1362.73   3
   6  -3 -11-606.370 878.192   3
   6  -3 -10 11930.5 1425.00   3
   6  -3 -10 11697.7 967.391   7
   6  -3  -9 4684.04 762.980   7
   6  -3  -9 3993.59 1004.85   3
   6  -3  -8 16339.0 1515.63   3
   6  -3  -8 17360.1 1184.03   7
   6  -3  -7 7984.82 1136.36   3
   6  -3  -7 7462.77 849.852   7
   6  -3  -6 13830.0 1310.52   3
   6  -3  -6 12819.3 1046.87   7
   6  -3  -5 8861.63 1053.36   3
   6  -3  -5 9015.44 931.786   7
   6  -3  -4 4251.23 790.155   3
   6  -3  -4 3187.44 640.196   7
   6  -3  -3 9424.78 998.617   3
   6  -3  -3 8222.62 871.098   7
   6  -3  -2 1031.09 324.940   2
   6  -3  -2 2257.71 685.336   3
   6  -3  -2 2557.61 688.110   7
   6  -3  -1 27661.1 1477.39   3
   6  -3  -1 27750.8 1453.50   7
   6  -3   0 11037.6 1055.18   7
   6  -3   1 32805.8 1584.16   7
   6  -3   2 6206.57 910.565   7
   6  -3   3 22033.1 1327.39   7
   6  -3   4 1800.81 555.676   6
   6  -3   4 1366.67 614.130   7
   6  -3   5 8655.73 944.475   7
   6  -3   5 7745.80 706.276   6
   6  -3   6 4273.98 752.860   7
   6  -3   7 6034.45 871.735   7
   6  -3   8 3369.98 750.668   7
   6  -3   9 3126.83 759.617   7
   6  -3  10 15848.6 1262.22   7
   6  -3  11 976.795 659.003   7
   6  -3  12 12648.7 1180.20   7
   6  -3  13 1152.03 633.460   7
   6  -3  14 7568.27 969.169   7
   6  -2 -17 3516.81 1305.86   3
   6  -2 -16 4263.44 1276.03   3
   6  -2 -15 4699.90 1222.86   3
   6  -2 -14 250.253 879.809   3
   6  -2 -13 7989.97 1337.99   3
   6  -2 -12-291.998 816.966   3
   6  -2 -11 6396.43 727.456   7
   6  -2 -11 6450.43 1138.35   3
   6  -2 -10 403.913 704.539   3
   6  -2 -10 622.198 494.996   7
   6  -2  -9 9303.10 1199.57   3
   6  -2  -9 10003.7 897.822   7
   6  -2  -8 1239.33 719.945   3
   6  -2  -8 1247.28 521.414   7
   6  -2  -7 9983.54 1141.24   3
   6  -2  -7 11391.1 951.319   7
   6  -2  -6 6067.32 924.340   3
   6  -2  -6 6442.69 784.392   7
   6  -2  -5 21015.6 1452.12   3
   6  -2  -5 20547.8 1235.93   7
   6  -2  -4 18933.4 1362.05   3
   6  -2  -4 18700.2 1196.90   7
   6  -2  -3 8000.50 965.329   3
   6  -2  -3 7653.71 843.605   7
   6  -2  -2 30882.8 1474.30   7
   6  -2  -1 14530.7 1109.43   7
   6  -2   0 37470.1 1637.16   7
   6  -2   1 8454.13 927.928   7
   6  -2   2 31637.6 1440.34   6
   6  -2   2 30416.7 1480.57   7
   6  -2   3 765.647 526.799   6
   6  -2   3 1728.32 635.848   7
   6  -2   4 16373.5 1022.23   6
   6  -2   4 16355.8 1146.14   7
   6  -2   5 1579.28 569.515   7
   6  -2   6 8494.59 927.880   7
   6  -2   7 3279.89 651.275   7
   6  -2   8 12236.6 1106.88   7
   6  -2   9 13797.0 1177.45   7
   6  -2  10 5462.38 868.994   7
   6  -2  11 19734.5 1362.16   7
   6  -2  12 384.926 594.175   7
   6  -2  13 14188.7 1175.58   7
   6  -1 -17 3977.87 1305.45   3
   6  -1 -16 3612.79 1232.05   3
   6  -1 -15 2387.56 1056.26   3
   6  -1 -14 8516.06 1380.05   3
   6  -1 -13 828.734 872.722   3
   6  -1 -12 10206.3 1365.67   3
   6  -1 -11 455.150 743.575   3
   6  -1 -10 11807.2 1326.79   3
   6  -1 -10 11626.7 901.511   7
   6  -1  -9 2231.94 786.291   3
   6  -1  -9 2054.58 531.240   7
   6  -1  -8 19699.5 1530.03   3
   6  -1  -8 19316.9 1152.68   7
   6  -1  -7 264.043 619.532   3
   6  -1  -7 617.487 489.341   7
   6  -1  -6 24056.6 1566.53   3
   6  -1  -6 23385.3 1277.71   7
   6  -1  -5 3610.61 648.064   7
   6  -1  -4 27158.7 1350.23   7
   6  -1  -3 24039.6 1305.54   7
   6  -1  -2 26647.4 1371.45   7
   6  -1  -1 30437.5 1446.59   7
   6  -1   0 18017.1 1220.70   6
   6  -1   0 18893.8 1206.17   7
   6  -1   1 25820.4 1399.64   6
   6  -1   1 24625.1 1326.66   7
   6  -1   2 1365.45 572.595   6
   6  -1   2 1844.38 625.610   7
   6  -1   3 33486.7 1488.89   6
   6  -1   3 34262.0 1546.28   7
   6  -1   4-76.6258 484.029   7
   6  -1   5 17532.6 1186.18   7
   6  -1   6 1460.33 570.222   7
   6  -1   7 13769.6 1121.73   7
   6  -1   8 2542.65 652.283   7
   6  -1   9 13202.8 1102.87   7
   6  -1  10 5601.06 821.978   7
   6  -1  11 2515.06 663.549   7
   6  -1  12 12288.0 1070.07   7
   6  -1  13 420.615 503.643   7
   6   0 -18 4184.95 1323.97   3
   6   0 -17 2056.58 1154.65   3
   6   0 -16 8904.06 1504.92   3
   6   0 -15 2743.98 1071.57   3
   6   0 -14 2681.49 1043.14   3
   6   0 -13 8111.70 1302.32   3
   6   0 -12 8167.83 1281.91   3
   6   0 -11 6985.42 1155.90   3
   6   0 -10 3756.76 934.106   3
   6   0  -8 762.666 419.978   7
   6   0  -7 19409.8 1134.98   7
   6   0  -6 70.6000 424.644   7
   6   0  -5 19419.1 1163.11   7
   6   0  -4 11451.3 921.855   7
   6   0  -3 45052.8 1704.96   7
   6   0  -2 26137.5 1336.33   7
   6   0  -1 21599.5 1379.03   6
   6   0  -1 20846.7 1206.35   7
   6   0   0 21558.2 1324.41   6
   6   0   0 21516.0 1229.31   7
   6   0   1 4591.07 748.253   6
   6   0   1 4955.50 718.745   7
   6   0   2 20720.9 846.183   2
   6   0   2 23286.2 1289.96   7
   6   0   2 22453.2 1307.67   6
   6   0   3 1221.34 341.418   2
   6   0   3 2603.83 611.387   7
   6   0   4 32482.8 1537.38   7
   6   0   5-277.164 501.947   7
   6   0   6 18383.2 1217.35   7
   6   0   7 2251.22 625.744   7
   6   0   8 18831.0 1212.50   7
   6   0   9 1172.54 556.125   7
   6   0  10 9627.78 932.660   7
   6   0  11 6407.94 824.421   7
   6   1  -5 6414.91 762.766   7
   6   1  -4 48244.1 2038.35   6
   6   1  -4 45704.4 1698.17   7
   6   1  -3 26668.0 1597.31   6
   6   1  -3 23750.2 1297.97   7
   6   1  -2 63226.9 2274.02   6
   6   1  -2 56656.0 1872.24   7
   6   1  -1 21609.2 1432.44   6
   6   1  -1 21147.4 1240.80   7
   6   1   0 31430.3 1593.73   6
   6   1   0 31263.1 1430.53   7
   6   1   1 15318.8 1052.23   7
   6   1   2 819.875 484.400   7
   6   1   3 12187.9 969.663   7
   6   1   4 3148.33 626.860   7
   6   1   5 23594.4 1341.34   7
   6   1   6 92.2481 512.082   7
   6   1   7 14795.1 1111.55   7
   6   2  -6 222.413 627.360   6
   6   2  -5 18998.3 1430.86   6
   6   2  -4 5380.46 935.792   6
   6   2  -3 50159.1 2108.45   6
   6   2  -2 7362.82 1051.17   6
   6   2  -1 28039.7 1598.72   6
   6   3 -10 18477.2 1582.21   6
   6   3  -9 401.088 722.659   6
   6   3  -8 4854.89 953.371   6
   6   3  -7 3379.17 893.290   6
   6   3  -6 19809.4 1480.03   6
   6   3  -5 5472.37 981.524   6
   6   3  -4 40202.2 1988.59   6
   6   3  -3 18136.5 1434.66   6
   6   4 -19 921.206 1094.69   6
   6   4 -18 5448.24 1276.24   6
   6   4 -17 710.265 1023.46   6
   6   4 -16 7081.77 1330.29   6
   6   4 -15-325.619 881.222   6
   6   4 -14 11750.0 1460.56   6
   6   4 -13 1178.07 923.361   6
   6   4 -12 14311.0 1517.75   6
   6   4 -11 10343.4 1375.73   6
   6   4 -10 8616.44 1224.70   6
   6   4  -9 3023.44 906.907   6
   6   4  -8 11589.3 1290.41   6
   6   4  -7 10532.0 1250.52   6
   6   4  -6 12955.2 1317.31   6
   6   4  -5 29660.0 1825.94   6
   6   5 -18 2982.13 1236.46   6
   6   5 -17 11977.3 1608.43   6
   6   5 -16 2587.97 1120.38   6
   6   5 -15 13740.3 1604.78   6
   6   5 -14 5386.24 1216.39   6
   6   5 -13 12333.2 1501.17   6
   6   5 -12 5145.12 1147.95   6
   6   5 -11 14188.3 1506.71   6
   6   5 -10 337.575 784.584   6
   6   5  -9 12088.9 1361.41   6
   6   5  -8-558.243 811.663   6
   6   6 -17 4646.75 1237.80   6
   6   6 -16 718.105 939.921   6
   6   6 -15 3664.81 1076.82   6
   6   6 -14 418.741 904.165   6
   6   6 -13 930.404 875.212   6
   6   6 -12 3014.74 1034.91   6
   6   6 -11 1770.75 938.056   6
   7 -10  -4 1478.27 1038.01   3
   7 -10  -3 5106.77 1266.48   3
   7 -10  -2 513.334 897.828   3
   7  -9  -6 3277.29 1239.24   3
   7  -9  -6 1277.64 873.565   7
   7  -9  -5 5662.21 1296.00   3
   7  -9  -5 4694.88 1088.08   7
   7  -9  -4 3858.33 1166.00   3
   7  -9  -4 2899.07 996.512   7
   7  -9  -3 1925.75 959.522   3
   7  -9  -3 1699.16 887.887   7
   7  -9  -2 8410.63 1318.40   3
   7  -9  -2 6237.38 1177.88   7
   7  -9  -1 3089.82 996.981   3
   7  -9  -1 3882.26 1026.83   7
   7  -9   0 6540.88 1195.25   7
   7  -9   1 1639.76 920.167   7
   7  -9   2 5548.06 1160.94   7
   7  -9   3 1957.15 963.064   7
   7  -9   4 4088.28 1057.76   7
   7  -9   5 1580.35 959.259   7
   7  -9   6 5297.17 1161.61   7
   7  -9   7 1559.35 915.188   7
   7  -9   8 2276.48 987.935   7
   7  -9   9 3314.62 1072.49   7
   7  -9  10 1451.34 938.041   7
   7  -8  -7 1191.76 987.924   3
   7  -8  -7 1545.15 830.898   7
   7  -8  -6 5437.93 1234.30   3
   7  -8  -6 4920.27 1023.98   7
   7  -8  -5 2286.36 995.898   3
   7  -8  -5 2212.47 847.630   7
   7  -8  -4 2962.00 1012.02   3
   7  -8  -4 2662.88 940.250   7
   7  -8  -3 3031.42 993.936   3
   7  -8  -3 3453.71 937.914   7
   7  -8  -2 2154.95 945.870   3
   7  -8  -2 2855.09 919.312   7
   7  -8  -1 5182.92 1068.43   3
   7  -8  -1 6680.07 1131.52   7
   7  -8   0 2364.91 912.755   3
   7  -8   0 3416.38 950.043   7
   7  -8   1 8962.69 1177.38   3
   7  -8   1 10887.9 1358.45   7
   7  -8   2 3862.65 1018.42   7
   7  -8   3 12614.6 1453.45   7
   7  -8   4 4161.20 1031.58   7
   7  -8   5 12281.0 1436.55   7
   7  -8   6 2373.19 963.940   7
   7  -8   7 11473.2 1431.43   7
   7  -8   8 3025.62 992.654   7
   7  -8   9 5220.51 1113.45   7
   7  -8  10 4161.63 1064.71   7
   7  -8  11 1381.94 892.480   7
   7  -8  12 3277.96 1015.04   7
   7  -8  13-28.4469 816.877   7
   7  -8  14 5033.37 1167.50   7
   7  -8  15 249.806 885.939   7
   7  -7  -9 8612.42 1538.29   3
   7  -7  -8 942.332 974.409   3
   7  -7  -7 8333.33 1411.79   3
   7  -7  -7 7216.31 1116.95   7
   7  -7  -6 1067.50 883.000   3
   7  -7  -6 555.941 730.288   7
   7  -7  -5 9679.28 1363.12   3
   7  -7  -5 9962.34 1218.77   7
   7  -7  -4 1892.26 902.272   3
   7  -7  -4 2874.90 878.809   7
   7  -7  -3 8846.32 1280.40   3
   7  -7  -3 9980.25 1225.34   7
   7  -7  -2 1581.86 821.808   3
   7  -7  -2 1705.15 795.940   7
   7  -7  -1 8369.23 1182.51   3
   7  -7  -1 8903.86 1182.77   7
   7  -7   0 7152.89 1137.52   7
   7  -7   0 5347.89 988.163   3
   7  -7   1 8994.11 1106.48   3
   7  -7   1 9304.55 1213.98   7
   7  -7   2 13042.1 1224.93   3
   7  -7   2 12275.2 1337.21   7
   7  -7   3 3695.50 962.730   7
   7  -7   4 11533.0 1340.23   7
   7  -7   5 1749.26 819.220   7
   7  -7   6 7033.17 1122.21   7
   7  -7   7 1336.75 779.643   7
   7  -7   8 8796.01 1226.75   7
   7  -7   9 3782.93 976.480   7
   7  -7  10 3487.24 989.897   7
   7  -7  11 4179.55 1050.01   7
   7  -7  12 1925.76 931.300   7
   7  -7  13 5045.28 1107.85   7
   7  -7  14 820.477 845.790   7
   7  -7  15 4084.94 1100.98   7
   7  -6 -11 1659.76 1140.33   3
   7  -6 -10 5215.42 1300.10   3
   7  -6  -9 372.439 909.186   3
   7  -6  -8 6242.32 1025.96   7
   7  -6  -8 6631.38 1293.34   3
   7  -6  -7-589.899 851.947   3
   7  -6  -7 881.697 707.818   7
   7  -6  -6 4180.14 1041.95   3
   7  -6  -6 4462.78 900.825   7
   7  -6  -5-1648.35 929.898   3
   7  -6  -5 70.5604 622.981   7
   7  -6  -4 7247.68 1159.49   3
   7  -6  -4 7180.79 1004.23   7
   7  -6  -3 1077.31 768.024   3
   7  -6  -3 1421.93 726.405   7
   7  -6  -2 6073.61 1033.58   3
   7  -6  -2 5457.20 931.498   7
   7  -6  -1 6076.51 1006.15   7
   7  -6  -1 5682.05 973.559   3
   7  -6   0 7296.77 1023.52   3
   7  -6   0 8167.41 1091.62   7
   7  -6   1 22188.8 1495.10   3
   7  -6   1 21568.1 1584.34   7
   7  -6   2 6673.75 949.101   3
   7  -6   2 8148.95 1123.97   7
   7  -6   3 19951.3 1545.79   7
   7  -6   4 3745.29 947.822   7
   7  -6   5 16272.2 1419.07   7
   7  -6   6 1264.91 763.307   7
   7  -6   7 14331.4 1394.14   7
   7  -6   8 1870.57 824.792   7
   7  -6   9 9528.56 1261.72   7
   7  -6  10 2449.06 934.906   7
   7  -6  11 6879.63 1137.09   7
   7  -6  12 2494.42 904.159   7
   7  -6  13 3866.78 989.660   7
   7  -6  14 3045.80 979.263   7
   7  -6  15 1026.03 802.829   7
   7  -5 -14 1114.43 907.916   2
   7  -5 -13-347.777 882.430   2
   7  -5 -12 673.283 797.633   2
   7  -5 -12 1475.01 1049.64   3
   7  -5 -11 1403.19 861.022   2
   7  -5 -11 3027.69 1153.33   3
   7  -5 -10 443.844 758.802   2
   7  -5 -10 536.743 909.446   3
   7  -5  -9 9295.44 1123.27   2
   7  -5  -9 11806.4 1575.19   3
   7  -5  -9 10164.8 1144.94   7
   7  -5  -8-426.267 651.276   2
   7  -5  -8-410.135 893.152   3
   7  -5  -8-197.077 608.954   7
   7  -5  -7 9760.27 1036.04   2
   7  -5  -7 10076.7 1383.98   3
   7  -5  -7 10639.9 1160.37   7
   7  -5  -6 54.9160 535.936   2
   7  -5  -6-866.877 864.171   3
   7  -5  -6 43.8210 628.973   7
   7  -5  -5 13280.3 1018.55   2
   7  -5  -5 13615.3 1439.75   3
   7  -5  -5 14067.8 1297.24   7
   7  -5  -4 1138.90 776.108   3
   7  -5  -4 1675.17 696.038   7
   7  -5  -3 18947.6 1542.58   3
   7  -5  -3 18115.5 1421.90   7
   7  -5  -2 2982.25 823.805   3
   7  -5  -2 3305.04 828.815   7
   7  -5  -1 13760.0 1267.43   3
   7  -5  -1 13795.1 1259.91   7
   7  -5   0 15060.6 1298.64   3
   7  -5   0 13825.5 1272.21   7
   7  -5   1 18026.8 1414.84   7
   7  -5   2 16403.5 1357.34   7
   7  -5   3 8937.48 1101.60   7
   7  -5   4 13007.5 1245.36   7
   7  -5   5 1128.51 567.975   6
   7  -5   5 608.545 643.039   7
   7  -5   6 9509.56 1128.24   7
   7  -5   7 102.729 639.604   7
   7  -5   8 5729.51 1028.43   7
   7  -5   9 399.168 709.188   7
   7  -5  10 8640.00 1187.63   7
   7  -5  11 674.998 731.555   7
   7  -5  12 6082.99 1064.31   7
   7  -5  13 2166.45 849.838   7
   7  -5  14 652.783 741.189   7
   7  -4 -15 934.004 909.459   2
   7  -4 -14-2214.22 1045.61   2
   7  -4 -13 2258.28 881.095   2
   7  -4 -13 5034.55 1356.94   3
   7  -4 -12 428.122 765.578   2
   7  -4 -12 1498.47 1003.31   3
   7  -4 -11 2069.61 794.390   2
   7  -4 -11 4577.91 1210.20   3
   7  -4 -10 5218.63 942.862   2
   7  -4 -10 7401.65 1317.43   3
   7  -4  -9 487.080 680.097   2
   7  -4  -9 1401.93 905.732   3
   7  -4  -9 2538.26 737.629   7
   7  -4  -8 9255.54 998.954   2
   7  -4  -8 12041.3 1468.12   3
   7  -4  -8 11938.3 1148.74   7
   7  -4  -7 1190.81 563.940   2
   7  -4  -7 2905.00 958.607   3
   7  -4  -7 3124.55 756.469   7
   7  -4  -6 14304.1 1051.35   2
   7  -4  -6 18166.0 1623.78   3
   7  -4  -6 16331.5 1310.48   7
   7  -4  -5 36.0336 498.003   2
   7  -4  -5 956.154 732.373   3
   7  -4  -5 969.144 592.889   7
   7  -4  -4 16773.2 968.039   2
   7  -4  -4 17945.3 1498.44   3
   7  -4  -4 17924.3 1360.60   7
   7  -4  -3 1301.46 451.309   2
   7  -4  -3 761.149 680.712   3
   7  -4  -3 973.685 676.290   7
   7  -4  -2 8249.68 1063.73   3
   7  -4  -2 7801.23 993.423   7
   7  -4  -1 3803.69 861.881   3
   7  -4  -1 4239.62 854.106   7
   7  -4   0 15957.4 1295.53   7
   7  -4   1 15019.7 1285.98   7
   7  -4   2 11508.1 1152.96   7
   7  -4   3 4467.56 855.648   7
   7  -4   4 960.755 567.487   6
   7  -4   4 388.875 638.011   7
   7  -4   5 10095.8 860.361   6
   7  -4   5 8916.83 1067.37   7
   7  -4   6 1063.66 665.286   7
   7  -4   7 12184.5 1237.45   7
   7  -4   8 239.284 661.630   7
   7  -4   9 17572.4 1459.28   7
   7  -4  10 1590.07 751.317   7
   7  -4  11 14433.0 1343.48   7
   7  -4  12 855.879 726.858   7
   7  -4  13 7105.36 1077.01   7
   7  -4  14 891.779 721.779   7
   7  -3 -14 3041.80 1169.47   3
   7  -3 -13-372.593 929.668   3
   7  -3 -12 4902.80 1196.46   3
   7  -3 -11 2422.98 1035.09   3
   7  -3 -10 3753.82 1087.45   3
   7  -3 -10 4275.23 777.164   7
   7  -3  -9 9956.66 1352.87   3
   7  -3  -9 8875.45 998.126   7
   7  -3  -8 7016.07 1174.61   3
   7  -3  -8 7121.65 913.607   7
   7  -3  -7 17876.1 1607.92   3
   7  -3  -7 17153.8 1320.06   7
   7  -3  -6 4561.57 954.917   3
   7  -3  -6 3078.14 693.557   7
   7  -3  -5 18204.2 1517.94   3
   7  -3  -5 18486.3 1351.20   7
   7  -3  -4 2861.14 838.554   3
   7  -3  -4 1024.80 594.019   7
   7  -3  -3 13811.1 1279.05   3
   7  -3  -3 13545.6 1158.83   7
   7  -3  -2 775.015 284.004   2
   7  -3  -2 2071.53 671.856   7
   7  -3  -1 12021.3 1114.00   7
   7  -3   0 6312.10 904.362   7
   7  -3   1 19121.1 1352.67   7
   7  -3   2 2715.62 748.418   7
   7  -3   3 5272.82 794.545   6
   7  -3   3 5287.50 849.905   7
   7  -3   4 791.750 542.104   6
   7  -3   4-97.2173 587.747   7
   7  -3   5 7338.54 967.563   7
   7  -3   5 7680.25 799.840   6
   7  -3   6 18274.3 1399.89   7
   7  -3   7 306.335 642.822   7
   7  -3   8 22834.9 1596.93   7
   7  -3   9 1965.68 778.223   7
   7  -3  10 18621.4 1492.79   7
   7  -3  11 1705.81 745.101   7
   7  -3  12 12345.2 1265.11   7
   7  -3  13 1580.73 748.460   7
   7  -2 -15 4593.10 1329.01   3
   7  -2 -14-774.638 999.177   3
   7  -2 -13 6636.81 1329.98   3
   7  -2 -12 643.174 907.642   3
   7  -2 -11 14954.6 1643.48   3
   7  -2 -11 14193.2 1099.53   7
   7  -2 -10 5357.90 799.337   7
   7  -2 -10 5641.47 1148.02   3
   7  -2  -9 16053.4 1612.21   3
   7  -2  -9 15537.9 1182.70   7
   7  -2  -8 6695.26 1127.54   3
   7  -2  -8 6221.60 853.378   7
   7  -2  -7 13718.5 1414.69   3
   7  -2  -7 13015.9 1097.62   7
   7  -2  -6 4672.87 925.721   3
   7  -2  -6 4338.11 752.383   7
   7  -2  -5 6997.77 1044.85   3
   7  -2  -5 6729.22 854.010   7
   7  -2  -4 5481.58 822.092   7
   7  -2  -3 2135.72 668.297   7
   7  -2  -2 8349.79 995.499   7
   7  -2  -1 11863.5 1124.25   7
   7  -2   0 13617.3 1180.26   7
   7  -2   1 13371.6 1195.18   6
   7  -2   1 11697.0 1135.89   7
   7  -2   2 17144.0 1299.92   6
   7  -2   2 17400.5 1303.44   7
   7  -2   3 13071.9 1097.11   6
   7  -2   3 13531.4 1165.10   7
   7  -2   4 21601.3 1455.07   7
   7  -2   4 21885.6 1302.44   6
   7  -2   5 28189.4 1628.83   7
   7  -2   6 15765.8 1299.14   7
   7  -2   7 44222.4 2038.60   7
   7  -2   8 5941.79 952.936   7
   7  -2   9 24731.4 1613.38   7
   7  -2  10 3853.51 903.680   7
   7  -2  11 9490.21 1108.30   7
   7  -2  12 2946.07 810.062   7
   7  -2  13 5241.73 906.596   7
   7  -1 -16 3949.34 1317.05   3
   7  -1 -15 1394.23 1083.95   3
   7  -1 -14 4415.11 1241.82   3
   7  -1 -13 3776.59 1206.32   3
   7  -1 -12 14030.8 1659.14   3
   7  -1 -11 6307.40 1305.61   3
   7  -1 -10 10868.1 1381.95   3
   7  -1 -10 9349.42 947.602   7
   7  -1  -9 8073.65 1239.09   3
   7  -1  -9 6630.87 846.474   7
   7  -1  -8 9716.94 963.880   7
   7  -1  -7 4604.46 747.745   7
   7  -1  -6 10412.9 1012.75   7
   7  -1  -5 13059.7 1117.75   7
   7  -1  -4 13289.2 1110.19   7
   7  -1  -3 33896.5 1648.70   7
   7  -1  -2 9826.44 1038.67   7
   7  -1  -1 47163.1 1919.41   7
   7  -1   0 4134.32 901.786   6
   7  -1   0 4868.49 844.312   7
   7  -1   1 30993.2 1654.35   6
   7  -1   1 30207.8 1570.62   7
   7  -1   2 1209.71 661.906   6
   7  -1   2 1889.09 680.535   7
   7  -1   3 22001.4 1395.78   7
   7  -1   3 21725.9 1360.20   6
   7  -1   4 1749.09 637.818   7
   7  -1   5 17199.9 1304.69   7
   7  -1   6 4300.28 807.758   7
   7  -1   7 6169.45 954.310   7
   7  -1   8 9045.91 1036.58   7
   7  -1   9 610.478 614.999   7
   7  -1  10 5219.62 881.166   7
   7  -1  11 92.3679 570.302   7
   7  -1  12 3901.53 761.548   7
   7   0  -8 489.501 489.915   7
   7   0  -7 18373.6 1230.33   7
   7   0  -6 1344.60 548.691   7
   7   0  -5 20571.3 1288.69   7
   7   0  -4 16721.0 1206.00   7
   7   0  -3 13036.6 1090.35   7
   7   0  -2 48686.5 2116.58   6
   7   0  -2 43638.2 1831.58   7
   7   0  -1 4760.77 974.922   6
   7   0  -1 4350.94 781.701   7
   7   0   0 18207.8 1342.64   6
   7   0   0 16361.3 1184.10   7
   7   0   1 86.9004 634.760   6
   7   0   1 1011.41 600.438   7
   7   0   2 11694.0 714.216   2
   7   0   2 14496.2 1143.49   7
   7   0   2 13822.0 1177.07   6
   7   0   3 1402.97 380.262   2
   7   0   3 4201.52 752.045   7
   7   0   4 13982.2 1145.70   7
   7   0   5 2845.11 696.539   7
   7   0   6 14023.2 1194.66   7
   7   0   7 6141.32 854.921   7
   7   0   8 7970.08 975.481   7
   7   0   9 6937.67 902.323   7
   7   0  10 2467.68 681.246   7
   7   0  11 5978.51 898.037   7
   7   1  -5 7092.67 1085.56   6
   7   1  -5 5090.94 758.118   7
   7   1  -4 27712.7 1736.69   6
   7   1  -4 23406.9 1374.43   7
   7   1  -3 29886.3 1836.82   6
   7   1  -3 27184.9 1469.32   7
   7   1  -2 11733.1 1252.13   6
   7   1  -2 10647.8 986.630   7
   7   1  -1 15443.3 1322.96   6
   7   1  -1 14397.8 1107.12   7
   7   1   0 346.020 659.308   6
   7   1   0 349.575 520.529   7
   7   1   1 10175.3 959.539   7
   7   1   2 107.493 546.722   7
   7   1   3 12682.1 1085.28   7
   7   1   4 2324.78 625.058   7
   7   1   5 12870.2 1133.72   7
   7   1   6-104.373 578.403   7
   7   1   7 17507.7 1283.97   7
   7   2  -8 536.850 801.289   6
   7   2  -7 12355.0 1338.21   6
   7   2  -6 2886.42 919.630   6
   7   2  -5 17832.6 1530.62   6
   7   2  -4 24469.3 1700.33   6
   7   2  -3 38787.1 2056.20   6
   7   2  -2 22361.3 1618.45   6
   7   2  -1 16641.5 1402.25   6
   7   3 -12 6449.35 1275.82   6
   7   3 -11 8854.87 1340.10   6
   7   3 -10 15590.8 1594.36   6
   7   3  -9 1474.46 901.001   6
   7   3  -8 19238.9 1680.63   6
   7   3  -7 360.288 777.023   6
   7   3  -6 10853.4 1265.94   6
   7   3  -5 2782.20 937.980   6
   7   3  -4 31163.4 1910.54   6
   7   3  -3 5925.00 1105.85   6
   7   4 -19 359.113 1095.19   6
   7   4 -18 6367.02 1462.12   6
   7   4 -17-89.9916 1029.48   6
   7   4 -16 4506.12 1288.22   6
   7   4 -15 597.670 978.533   6
   7   4 -14 5374.82 1257.56   6
   7   4 -13 1477.74 1018.90   6
   7   4 -12 8726.27 1399.90   6
   7   4 -11 7508.69 1303.55   6
   7   4 -10 3435.70 1065.32   6
   7   4  -9 16310.9 1598.27   6
   7   4  -8 506.534 846.572   6
   7   4  -7 14646.1 1468.03   6
   7   4  -6 2323.43 912.721   6
   7   4  -5 26713.0 1870.99   6
   7   5 -19 1213.16 1162.08   6
   7   5 -18 2377.50 1245.74   6
   7   5 -17 6181.81 1421.89   6
   7   5 -16 664.994 1084.04   6
   7   5 -15 5119.96 1254.28   6
   7   5 -14 1038.86 1043.52   6
   7   5 -13 5473.55 1254.72   6
   7   5 -12 3636.61 1142.58   6
   7   5 -11 4752.47 1145.99   6
   7   5 -10 7590.46 1247.73   6
   7   5  -9 4177.26 1041.52   6
   7   5  -8 12684.9 1479.45   6
   7   6 -18 2063.82 1199.55   6
   7   6 -17-258.994 1109.88   6
   7   6 -16 4796.14 1302.01   6
   7   6 -15-80.2905 1028.94   6
   7   6 -14 3215.62 1152.81   6
   7   6 -13 1169.86 972.896   6
   7   6 -12 4490.72 1199.47   6
   7   6 -11 3781.21 1139.37   6
   7   7 -17 5383.32 1348.23   6
   8  -9  -6 3525.14 1073.58   7
   8  -9  -5 1228.32 1124.87   3
   8  -9  -5 714.785 855.745   7
   8  -9  -4 5951.41 1418.06   3
   8  -9  -4 5507.03 1204.78   7
   8  -9  -3 340.303 973.847   3
   8  -9  -3-206.431 820.228   7
   8  -9  -2 4908.50 1216.99   3
   8  -9  -2 4831.56 1143.60   7
   8  -9  -1-32.0570 799.000   7
   8  -9   0 5769.06 1191.63   7
   8  -9   1 1762.85 959.966   7
   8  -9   2 6053.11 1236.34   7
   8  -9   3 2774.86 1022.26   7
   8  -9   4 4092.50 1140.47   7
   8  -8  -6 2970.37 1208.29   3
   8  -8  -6 4005.53 1082.12   7
   8  -8  -5 3688.77 1243.42   3
   8  -8  -5 4822.54 1119.39   7
   8  -8  -4 199.280 955.879   3
   8  -8  -4 196.984 779.010   7
   8  -8  -3 4672.93 1197.20   3
   8  -8  -3 4977.44 1089.08   7
   8  -8  -2 321.484 899.969   3
   8  -8  -2 369.321 802.639   7
   8  -8  -1 7280.51 1251.59   3
   8  -8  -1 6751.78 1177.66   7
   8  -8   0 1430.83 904.523   3
   8  -8   0 2065.02 923.881   7
   8  -8   1 11504.0 1438.21   7
   8  -8   2 4260.28 1069.18   7
   8  -8   3 7917.42 1289.64   7
   8  -8   4 5368.40 1165.28   7
   8  -8   5 5379.22 1188.21   7
   8  -8   6 5087.09 1137.48   7
   8  -8   7 3153.67 1005.18   7
   8  -8   8 4423.93 1125.20   7
   8  -8   9 1479.69 948.911   7
   8  -8  10 6192.44 1268.34   7
   8  -7  -8 1700.22 1170.99   3
   8  -7  -7 3766.78 1271.67   3
   8  -7  -7 4543.27 1039.62   7
   8  -7  -6 2105.35 1106.54   3
   8  -7  -6 1777.42 862.830   7
   8  -7  -5 1235.56 981.091   3
   8  -7  -5 1878.85 861.243   7
   8  -7  -4 5315.80 1222.55   3
   8  -7  -4 5367.29 1090.71   7
   8  -7  -3 84.9949 838.706   3
   8  -7  -3 1377.82 832.003   7
   8  -7  -2 8298.83 1281.46   3
   8  -7  -2 10043.9 1283.30   7
   8  -7  -1 2855.08 994.009   3
   8  -7  -1 3194.41 944.454   7
   8  -7   0 14431.9 1458.27   3
   8  -7   0 13424.0 1454.30   7
   8  -7   1 4746.16 1034.45   3
   8  -7   1 4470.88 1019.76   7
   8  -7   2 15190.8 1537.50   7
   8  -7   3 4816.62 1068.88   7
   8  -7   4 10514.1 1334.64   7
   8  -7   5 4371.29 1039.59   7
   8  -7   6 4102.48 1017.76   7
   8  -7   7 2235.29 892.207   7
   8  -7   8 3112.24 986.630   7
   8  -7   9 2766.28 981.278   7
   8  -7  10 811.352 919.624   7
   8  -7  11 2446.98 1018.99   7
   8  -7  12-307.615 836.554   7
   8  -7  13 4060.63 1127.31   7
   8  -7  14 578.779 904.941   7
   8  -6  -9-870.954 1097.16   3
   8  -6  -8 5215.60 1299.03   3
   8  -6  -8 4318.82 953.309   7
   8  -6  -7-671.369 991.134   3
   8  -6  -7 482.262 767.613   7
   8  -6  -6 1926.62 1010.29   3
   8  -6  -6 3572.69 974.147   7
   8  -6  -5 772.538 881.161   3
   8  -6  -5 1818.52 835.865   7
   8  -6  -4 3050.65 1015.58   3
   8  -6  -4 2463.51 849.128   7
   8  -6  -3 7805.86 1230.77   3
   8  -6  -3 6700.28 1081.10   7
   8  -6  -2 3194.99 975.214   3
   8  -6  -2 2263.54 850.423   7
   8  -6  -1 10878.6 1345.23   3
   8  -6  -1 11887.1 1320.00   7
   8  -6   0 6894.88 1127.97   3
   8  -6   0 7875.55 1183.82   7
   8  -6   1 17571.9 1564.74   7
   8  -6   2 6628.82 1136.95   7
   8  -6   3 14593.8 1474.22   7
   8  -6   4 4994.96 1063.11   7
   8  -6   5 7851.65 1173.69   7
   8  -6   6 2530.51 892.842   7
   8  -6   7 6080.21 1135.83   7
   8  -6   8 2876.48 949.317   7
   8  -6   9 3240.78 999.957   7
   8  -6  10 3119.24 1039.30   7
   8  -6  11 945.149 843.950   7
   8  -6  12 2820.90 979.281   7
   8  -6  13 1324.08 841.966   7
   8  -6  14 7854.21 1299.78   7
   8  -5 -11 5280.78 1437.35   3
   8  -5 -10-613.501 1026.97   3
   8  -5  -9 6884.90 1070.42   7
   8  -5  -9 7679.25 1417.31   3
   8  -5  -8-4.87519 864.979   3
   8  -5  -8 888.921 721.285   7
   8  -5  -7 5225.85 1233.19   3
   8  -5  -7 4535.66 930.265   7
   8  -5  -6-79.0461 788.613   3
   8  -5  -6-140.565 705.454   7
   8  -5  -5 8406.66 1302.37   3
   8  -5  -5 7452.17 1099.84   7
   8  -5  -4 2610.96 964.684   3
   8  -5  -4 1930.06 779.948   7
   8  -5  -3 9341.43 1288.37   3
   8  -5  -3 9820.29 1226.88   7
   8  -5  -2 13894.5 1479.34   3
   8  -5  -2 13866.4 1388.21   7
   8  -5  -1 8737.48 1190.53   7
   8  -5   0 18049.7 1542.61   7
   8  -5   1 7482.54 1133.54   7
   8  -5   2 15409.7 1448.99   7
   8  -5   3 1982.91 866.045   7
   8  -5   4 9849.85 1226.17   7
   8  -5   5 281.272 714.019   7
   8  -5   6 7501.19 1129.06   7
   8  -5   7 336.121 741.008   7
   8  -5   8 5297.71 1074.22   7
   8  -5   9 1562.45 833.024   7
   8  -5  10 3657.95 984.997   7
   8  -5  11 2101.91 907.852   7
   8  -5  12 3997.67 1017.36   7
   8  -5  13 6739.52 1202.24   7
   8  -5  14 403.796 816.711   7
   8  -4 -12 5646.96 1390.84   3
   8  -4 -11 840.580 1023.67   3
   8  -4 -10 9336.67 1525.02   3
   8  -4  -9 2408.29 1019.09   3
   8  -4  -9 1068.84 693.488   7
   8  -4  -8 7216.71 1341.11   3
   8  -4  -8 5992.28 975.971   7
   8  -4  -7 454.035 811.632   3
   8  -4  -7 40.0056 652.813   7
   8  -4  -6 6940.17 1223.86   3
   8  -4  -6 5485.85 972.639   7
   8  -4  -5 696.996 804.325   3
   8  -4  -5-441.121 707.456   7
   8  -4  -4 19003.4 1668.72   3
   8  -4  -4 16518.4 1416.32   7
   8  -4  -3 8995.28 1259.04   3
   8  -4  -3 8310.43 1107.98   7
   8  -4  -2 5059.09 961.189   7
   8  -4  -1 14233.5 1330.00   7
   8  -4   0 10154.5 1188.71   7
   8  -4   1 15551.5 1395.66   7
   8  -4   2 11954.6 1274.32   7
   8  -4   3 18846.3 1370.85   6
   8  -4   3 17480.8 1468.27   7
   8  -4   4 1402.98 686.490   6
   8  -4   4 1872.05 821.306   7
   8  -4   5 15976.5 1174.30   6
   8  -4   5 15061.7 1404.31   7
   8  -4   6 1103.51 784.372   7
   8  -4   7 12224.8 1318.80   7
   8  -4   8 339.987 714.419   7
   8  -4   9 8189.74 1214.86   7
   8  -4  10 1516.06 822.137   7
   8  -4  11 2657.34 933.672   7
   8  -4  12 3097.04 957.059   7
   8  -4  13 2025.83 840.431   7
   8  -4  14 4128.96 1016.51   7
   8  -3 -13 2564.69 1234.20   3
   8  -3 -12 8640.60 1513.32   3
   8  -3 -11 7385.99 1440.87   3
   8  -3 -10 6083.72 1317.79   3
   8  -3 -10 5096.93 904.009   7
   8  -3  -9 8665.27 1415.53   3
   8  -3  -9 7378.80 1012.99   7
   8  -3  -8 4597.58 1124.14   3
   8  -3  -8 3888.69 842.629   7
   8  -3  -7 9515.24 1377.37   3
   8  -3  -7 7351.73 1019.93   7
   8  -3  -6 2885.14 960.874   3
   8  -3  -6 2295.92 746.492   7
   8  -3  -5 7209.58 996.778   7
   8  -3  -4 56.6874 638.483   7
   8  -3  -3 6582.51 969.921   7
   8  -3  -2 2862.74 822.139   7
   8  -3  -1 7317.07 1047.92   7
   8  -3   0 12353.9 1265.75   7
   8  -3   1 11808.7 1242.32   7
   8  -3   2 18137.3 1415.74   6
   8  -3   2 18821.5 1493.71   7
   8  -3   3 6047.92 959.802   6
   8  -3   3 7002.93 1069.15   7
   8  -3   4 21910.3 1410.15   6
   8  -3   4 22176.6 1592.25   7
   8  -3   5 1602.12 792.391   7
   8  -3   6 21271.1 1614.95   7
   8  -3   7 1531.44 804.884   7
   8  -3   8 13391.5 1406.12   7
   8  -3   9 4411.37 1015.63   7
   8  -3  10 10275.2 1300.12   7
   8  -3  11 1775.67 822.009   7
   8  -3  12 5057.76 1015.25   7
   8  -3  13 2549.17 877.955   7
   8  -2 -14 1190.46 1140.09   3
   8  -2 -13 9221.54 1632.08   3
   8  -2 -12 1275.66 1090.33   3
   8  -2 -11 7371.20 1387.35   3
   8  -2 -10 5088.22 1284.61   3
   8  -2 -10 2657.54 752.666   7
   8  -2  -9 2707.44 1019.96   3
   8  -2  -9 1189.39 644.414   7
   8  -2  -8 4816.33 852.130   7
   8  -2  -7 75.2296 577.920   7
   8  -2  -6 4431.40 823.167   7
   8  -2  -5 4814.50 874.046   7
   8  -2  -4 15669.7 1315.36   7
   8  -2  -3 14827.3 1330.50   7
   8  -2  -2 31499.7 1795.77   7
   8  -2  -1 45945.4 2131.01   7
   8  -2   0 41344.4 2127.70   6
   8  -2   0 39751.9 2018.46   7
   8  -2   1 32521.9 1885.95   6
   8  -2   1 31387.2 1839.72   7
   8  -2   2 50851.2 2181.62   6
   8  -2   2 49587.7 2229.83   7
   8  -2   3 17919.6 1380.54   6
   8  -2   3 21183.4 1534.18   7
   8  -2   4 24468.7 1662.99   7
   8  -2   5 21832.6 1581.80   7
   8  -2   6 9214.64 1163.45   7
   8  -2   7 6784.31 1066.35   7
   8  -2   8 774.141 727.358   7
   8  -2   9 3899.41 1061.43   7
   8  -2  10 579.355 699.570   7
   8  -2  11 3759.15 911.301   7
   8  -2  12 134.926 667.710   7
   8  -2  13 1524.07 767.121   7
   8  -1 -10 6382.39 905.112   7
   8  -1  -9 15914.1 1257.44   7
   8  -1  -8 3593.89 769.945   7
   8  -1  -7 16963.4 1325.34   7
   8  -1  -6 7919.63 998.544   7
   8  -1  -5 22142.9 1485.98   7
   8  -1  -4 5537.77 916.757   7
   8  -1  -3 23554.4 1524.86   7
   8  -1  -2 7220.31 1175.54   6
   8  -1  -2 4785.64 896.690   7
   8  -1  -1 19290.7 1517.47   6
   8  -1  -1 16222.8 1295.12   7
   8  -1   0 4534.46 982.916   6
   8  -1   0 2997.77 766.152   7
   8  -1   1 13650.4 1258.78   6
   8  -1   1 12841.7 1195.84   7
   8  -1   2 239.368 675.259   6
   8  -1   2 1678.78 744.429   7
   8  -1   3 9922.17 1117.89   7
   8  -1   4 4277.49 876.762   7
   8  -1   5 1186.85 707.797   7
   8  -1   6 9912.82 1138.18   7
   8  -1   7 138.517 658.201   7
   8  -1   8 5481.60 950.559   7
   8  -1   9 1304.41 714.364   7
   8  -1  10 6321.94 999.475   7
   8  -1  11 480.325 638.257   7
   8  -1  12 6181.71 978.981   7
   8   0  -8 2163.78 649.139   7
   8   0  -7 2488.48 649.549   7
   8   0  -6 10184.1 1041.99   7
   8   0  -5 914.317 589.626   7
   8   0  -4 16592.2 1514.31   6
   8   0  -4 14240.1 1199.55   7
   8   0  -3 6639.18 1181.84   6
   8   0  -3 3775.30 810.742   7
   8   0  -2 30873.4 1942.03   6
   8   0  -2 26242.0 1571.35   7
   8   0  -1 9201.44 1258.49   6
   8   0  -1 6354.53 938.232   7
   8   0   0 16565.3 1406.19   6
   8   0   0 17479.0 1317.49   7
   8   0   1 3911.55 873.797   6
   8   0   1 5243.37 866.865   7
   8   0   2 14551.2 1239.10   7
   8   0   3 2770.72 726.628   7
   8   0   4 8860.56 1024.25   7
   8   0   5 6790.27 951.255   7
   8   0   6 3604.41 798.025   7
   8   0   7 9157.29 1086.79   7
   8   0   8 681.420 618.771   7
   8   0   9 6748.35 1023.29   7
   8   0  10 315.382 597.181   7
   8   0  11 7617.79 1053.65   7
   8   1  -6 8476.12 1214.43   6
   8   1  -5 13608.7 1467.29   6
   8   1  -5 12002.1 1138.56   7
   8   1  -4 6377.19 1188.04   6
   8   1  -4 4739.69 834.624   7
   8   1  -3 29500.6 1929.01   6
   8   1  -3 25933.0 1572.78   7
   8   1  -2 4217.65 1023.26   6
   8   1  -2 2209.77 701.014   7
   8   1  -1 18381.5 1528.15   6
   8   1  -1 15601.4 1247.99   7
   8   1   0-369.567 758.388   6
   8   1   0-111.524 625.401   7
   8   1   1 5468.76 813.746   7
   8   1   2 1.92104 648.814   7
   8   1   3 10236.0 1070.32   7
   8   1   4 2028.89 709.258   7
   8   1   5 7424.43 971.987   7
   8   1   6 2401.07 731.457   7
   8   1   7 8898.10 1088.63   7
   8   2 -10 526.849 936.701   6
   8   2  -9 12361.2 1513.36   6
   8   2  -8 1528.52 954.664   6
   8   2  -7 10478.2 1405.61   6
   8   2  -6 4774.72 1113.08   6
   8   2  -5 4983.81 1096.18   6
   8   2  -4 25451.4 1861.27   6
   8   2  -3 11714.2 1472.16   6
   8   2  -2 21844.7 1724.51   6
   8   3 -17 1917.78 1288.11   6
   8   3 -16 638.063 1089.24   6
   8   3 -15 1229.03 1143.83   6
   8   3 -14 4662.15 1379.59   6
   8   3 -13 1569.03 1081.66   6
   8   3 -12 9306.64 1490.79   6
   8   3 -11 6725.34 1378.08   6
   8   3 -10 11791.0 1578.56   6
   8   3  -9 1485.41 982.060   6
   8   3  -8 19536.6 1797.55   6
   8   3  -7 2554.48 1011.41   6
   8   3  -6 7888.72 1277.01   6
   8   3  -5 9924.15 1367.28   6
   8   3  -4 33653.8 2154.76   6
   8   3  -3 20881.2 1784.81   6
   8   4 -17 1269.33 1194.82   6
   8   4 -16 4817.54 1405.23   6
   8   4 -15 3567.81 1299.59   6
   8   4 -14 912.699 1078.25   6
   8   4 -13 10659.3 1624.93   6
   8   4 -12 7239.77 1410.18   6
   8   4 -11 13100.1 1645.54   6
   8   4 -10 1740.70 1038.21   6
   8   4  -9 15176.1 1674.20   6
   8   4  -8 404.251 929.106   6
   8   4  -7 2968.69 987.165   6
   8   4  -6 952.371 942.835   6
   8   4  -5 16887.3 1726.66   6
   8   5 -17 5704.18 1521.34   6
   8   5 -16 1792.55 1192.70   6
   8   5 -15 5185.03 1361.48   6
   8   5 -14 3662.63 1248.79   6
   8   5 -13 5027.68 1337.25   6
   8   5 -12 5195.18 1313.17   6
   8   5 -11 3639.84 1207.18   6
   8   5 -10 6553.10 1274.83   6
   8   5  -9 282.487 940.006   6
   8   5  -8 5719.03 1189.51   6
   8   6 -16 5417.47 1409.84   6
   8   6 -15 1800.22 1139.83   6
   8   6 -14 4433.46 1320.18   6
   8   6 -13 229.998 1014.56   6
   8   6 -12 2144.90 1091.18   6
   8   6 -11 3874.97 1179.80   6
   9  -8  -6 607.021 879.236   7
   9  -8  -5 6394.68 1449.59   3
   9  -8  -5 4315.37 1170.42   7
   9  -8  -4-506.225 1116.51   3
   9  -8  -4-112.918 884.974   7
   9  -8  -3 6677.32 1439.02   3
   9  -8  -3 5142.20 1198.09   7
   9  -8  -2 23.6480 977.184   3
   9  -8  -2 1881.55 989.868   7
   9  -8  -1 5737.21 1211.76   7
   9  -8   0 2011.65 1010.80   7
   9  -8   1 5074.60 1181.47   7
   9  -8   2 3216.15 1060.68   7
   9  -8   3 2938.89 1027.92   7
   9  -7  -7 2188.27 984.568   7
   9  -7  -6 8221.49 1525.88   3
   9  -7  -6 7046.11 1275.67   7
   9  -7  -5 828.783 988.952   3
   9  -7  -5 1137.32 855.183   7
   9  -7  -4 6371.30 1378.65   3
   9  -7  -4 5283.61 1176.47   7
   9  -7  -3 18.6976 964.590   3
   9  -7  -3 33.1551 798.183   7
   9  -7  -2 9286.00 1468.30   3
   9  -7  -2 8916.11 1343.23   7
   9  -7  -1 1042.21 928.632   3
   9  -7  -1 1437.69 891.288   7
   9  -7   0 6864.19 1230.19   7
   9  -7   1 2740.86 994.808   7
   9  -7   2 3794.31 1075.08   7
   9  -7   3 2990.12 1056.41   7
   9  -7   4 2257.35 993.744   7
   9  -7   5 6489.26 1254.99   7
   9  -7   6 497.557 882.492   7
   9  -7   7 4142.92 1114.01   7
   9  -7   8 1066.08 949.304   7
   9  -7   9 6431.73 1311.69   7
   9  -6  -8 2494.75 1195.69   3
   9  -6  -8 2170.05 901.513   7
   9  -6  -7 3309.94 1246.70   3
   9  -6  -7 2381.51 926.247   7
   9  -6  -6 1157.63 1045.02   3
   9  -6  -6 540.333 789.716   7
   9  -6  -5 3423.91 1161.25   3
   9  -6  -5 4090.68 992.141   7
   9  -6  -4 1120.98 1009.24   3
   9  -6  -4 231.807 772.689   7
   9  -6  -3 8879.72 1446.01   3
   9  -6  -3 9216.57 1321.62   7
   9  -6  -2 1664.59 930.506   7
   9  -6  -1 12459.7 1458.01   7
   9  -6   0 4749.47 1099.87   7
   9  -6   1 9633.02 1350.91   7
   9  -6   2 3444.64 1057.00   7
   9  -6   3 5129.34 1106.12   7
   9  -6   4 6104.19 1171.91   7
   9  -6   5 3771.34 1052.11   7
   9  -6   6 5290.34 1143.21   7
   9  -6   7 1229.53 882.532   7
   9  -6   8 3627.77 1066.26   7
   9  -6   9 2965.61 1049.52   7
   9  -6  10 7539.33 1331.79   7
   9  -6  11 686.499 869.839   7
   9  -6  12 4700.23 1254.83   7
   9  -5  -9 4298.04 1352.57   3
   9  -5  -8 966.818 1068.32   3
   9  -5  -8 1448.60 844.639   7
   9  -5  -7 6322.66 1363.09   3
   9  -5  -7 5128.29 1069.18   7
   9  -5  -6 2979.65 1162.32   3
   9  -5  -6 3927.83 943.487   7
   9  -5  -5 3182.24 1100.69   3
   9  -5  -5 2183.03 858.720   7
   9  -5  -4 8362.96 1370.80   3
   9  -5  -4 7096.78 1161.58   7
   9  -5  -3 4613.07 1028.86   7
   9  -5  -2 12300.3 1399.41   7
   9  -5  -1 5569.16 1127.42   7
   9  -5   0 10511.9 1337.90   7
   9  -5   1 4912.66 1071.93   7
   9  -5   2 8722.13 1243.40   7
   9  -5   3 1978.06 877.762   7
   9  -5   4 5443.53 1090.75   7
   9  -5   5 3334.76 953.450   7
   9  -5   6 3946.14 1053.84   7
   9  -5   7 6124.61 1194.58   7
   9  -5   8 3700.94 1078.52   7
   9  -5   9 3647.40 1032.40   7
   9  -5  10 1965.42 963.780   7
   9  -5  11 6336.62 1278.43   7
   9  -5  12 78.0780 868.942   7
   9  -5  13 6506.50 1315.87   7
   9  -5  14 1064.15 890.538   7
   9  -4 -10 4673.21 1381.62   3
   9  -4  -9 610.279 1051.93   3
   9  -4  -9 449.966 748.890   7
   9  -4  -8 5806.38 1074.03   7
   9  -4  -8 6013.59 1361.14   3
   9  -4  -7 1483.53 1013.85   3
   9  -4  -7 920.140 775.699   7
   9  -4  -6 2839.36 887.470   7
   9  -4  -5 3892.54 962.818   7
   9  -4  -4 5883.75 1068.00   7
   9  -4  -3 11941.8 1360.96   7
   9  -4  -2 9269.34 1251.66   7
   9  -4  -1 15985.2 1511.58   7
   9  -4   0 7277.14 1154.67   7
   9  -4   1 13172.5 1417.43   7
   9  -4   2 2487.15 901.166   6
   9  -4   2 3461.46 977.613   7
   9  -4   3 15722.5 1422.77   6
   9  -4   3 14391.3 1455.14   7
   9  -4   4 1610.99 847.496   7
   9  -4   5 6834.63 1143.55   7
   9  -4   6 3017.34 935.211   7
   9  -4   7 3360.19 991.172   7
   9  -4   8 2213.87 910.545   7
   9  -4   9 3335.46 1004.64   7
   9  -4  10 4293.36 1110.90   7
   9  -4  11 2477.42 936.414   7
   9  -4  12 7878.88 1279.69   7
   9  -4  13 119.229 779.937   7
   9  -3 -11 6259.51 1458.78   3
   9  -3 -10 1145.73 1052.86   3
   9  -3 -10 304.204 650.349   7
   9  -3  -9 6052.34 1025.68   7
   9  -3  -8 517.493 700.407   7
   9  -3  -7 6648.62 1052.52   7
   9  -3  -6 975.639 720.807   7
   9  -3  -5 10825.7 1254.20   7
   9  -3  -4 7482.60 1119.98   7
   9  -3  -3 12880.3 1326.92   7
   9  -3  -2 12077.3 1341.01   7
   9  -3  -1 11482.3 1298.61   7
   9  -3   0 13074.8 1363.22   7
   9  -3   1 7093.11 1174.08   6
   9  -3   1 6372.63 1096.07   7
   9  -3   2 18170.9 1528.38   6
   9  -3   2 19709.0 1606.73   7
   9  -3   3 1580.49 814.999   6
   9  -3   3 1682.20 860.081   7
   9  -3   4 7803.54 1042.67   6
   9  -3   4 7754.11 1155.45   7
   9  -3   5 3387.96 947.072   7
   9  -3   6 5819.59 1084.01   7
   9  -3   7 2576.15 902.432   7
   9  -3   8 4777.28 1051.92   7
   9  -3   9 7337.55 1195.91   7
   9  -3  10 3157.22 977.119   7
   9  -3  11 6774.28 1146.36   7
   9  -3  12 1458.42 866.223   7
   9  -3  13 5104.98 1089.51   7
   9  -2 -10 7651.17 1057.91   7
   9  -2  -9 575.344 682.357   7
   9  -2  -8 13265.5 1315.93   7
   9  -2  -7 1797.36 786.385   7
   9  -2  -6 18250.9 1506.27   7
   9  -2  -5 4242.26 925.513   7
   9  -2  -4 17088.7 1465.25   7
   9  -2  -3 7211.81 1103.96   7
   9  -2  -2 16643.1 1447.89   7
   9  -2  -1 11315.9 1395.69   6
   9  -2  -1 10308.8 1211.06   7
   9  -2   0 7963.25 1240.67   6
   9  -2   0 6320.57 1072.67   7
   9  -2   1 19439.9 1578.10   6
   9  -2   1 18904.4 1541.28   7
   9  -2   2 4880.82 1004.12   6
   9  -2   2 6645.05 1098.79   7
   9  -2   3 11083.3 1252.64   6
   9  -2   3 11612.8 1293.43   7
   9  -2   4 585.930 710.637   7
   9  -2   5 10112.4 1257.49   7
   9  -2   6 250.533 671.256   7
   9  -2   7 9358.82 1236.85   7
   9  -2   8 3026.74 931.080   7
   9  -2   9 5854.30 1095.28   7
   9  -2  10 3774.49 1003.36   7
   9  -2  11 2705.55 911.612   7
   9  -2  12 2338.89 861.298   7
   9  -2  13 1601.95 837.569   7
   9  -1 -10 4979.99 919.375   7
   9  -1  -9 19782.4 1520.67   7
   9  -1  -8-80.3676 622.986   7
   9  -1  -7 13379.4 1297.02   7
   9  -1  -6 334.194 612.764   7
   9  -1  -5 12901.9 1285.24   7
   9  -1  -4 1424.59 732.841   7
   9  -1  -3 13910.1 1514.94   6
   9  -1  -3 14044.2 1324.58   7
   9  -1  -2 6370.31 1189.16   6
   9  -1  -2 5223.36 962.247   7
   9  -1  -1 8393.32 1260.06   6
   9  -1  -1 8424.61 1103.22   7
   9  -1   0 10281.3 1274.38   6
   9  -1   0 10166.4 1180.39   7
   9  -1   1 10173.9 1269.18   6
   9  -1   1 9009.20 1139.68   7
   9  -1   2 7965.68 1131.75   6
   9  -1   2 8211.10 1111.09   7
   9  -1   3 2727.32 836.439   7
   9  -1   4 7207.30 1063.95   7
   9  -1   5 393.879 671.006   7
   9  -1   6 5897.23 1028.45   7
   9  -1   7-25.1427 717.345   7
   9  -1   8 3621.44 905.303   7
   9  -1   9 1826.76 784.702   7
   9  -1  10 1810.74 786.831   7
   9  -1  11 1573.59 745.233   7
   9  -1  12 1042.91 692.707   7
   9   0  -8 11947.8 1221.61   7
   9   0  -7-971.664 742.747   7
   9   0  -6 6078.52 931.806   7
   9   0  -5 319.565 895.923   6
   9   0  -5-50.9229 625.603   7
   9   0  -4 10657.5 1411.00   6
   9   0  -4 9895.80 1109.57   7
   9   0  -3 3022.87 1092.15   6
   9   0  -3 2787.13 800.835   7
   9   0  -2 11170.3 1421.35   6
   9   0  -2 10252.4 1130.66   7
   9   0  -1 4989.56 1084.26   6
   9   0  -1 4683.01 907.546   7
   9   0   0 5294.20 1082.89   6
   9   0   0 5700.96 934.674   7
   9   0   1 5884.98 1096.79   6
   9   0   1 7470.98 1034.24   7
   9   0   2 3476.73 838.409   7
   9   0   3 7890.11 1069.61   7
   9   0   4 3420.80 838.797   7
   9   0   5 9301.79 1136.15   7
   9   0   6 37.6866 637.006   7
   9   0   7 10139.5 1201.99   7
   9   0   8 291.319 686.600   7
   9   0   9 8532.80 1166.20   7
   9   0  10 495.321 724.761   7
   9   1  -8 1655.94 1007.48   6
   9   1  -7 9150.19 1392.65   6
   9   1  -6 129.133 885.115   6
   9   1  -5 13140.5 1620.27   6
   9   1  -4 5359.97 1204.37   6
   9   1  -4 3464.92 851.674   7
   9   1  -3 18697.9 1718.29   6
   9   1  -3 16992.8 1394.81   7
   9   1  -2 6827.56 1268.39   6
   9   1  -2 5669.48 953.787   7
   9   1  -1 16002.4 1572.93   6
   9   1  -1 17342.6 1414.63   7
   9   1   0 3053.99 832.578   7
   9   1   0 2656.18 960.922   6
   9   1   1 7965.31 1068.17   7
   9   1   2 2113.80 761.679   7
   9   1   3 12258.7 1274.00   7
   9   1   4 9468.24 1192.14   7
   9   1   5 6262.87 1044.16   7
   9   1   6 8851.99 1156.06   7
   9   2 -13 4016.67 1316.93   6
   9   2 -12 1446.43 1110.41   6
   9   2 -11 5906.17 1371.86   6
   9   2 -10 2477.38 1117.98   6
   9   2  -9 6056.62 1302.16   6
   9   2  -8 13786.9 1663.32   6
   9   2  -7 5760.22 1282.58   6
   9   2  -6 15916.8 1675.75   6
   9   2  -5 8422.39 1404.10   6
   9   2  -4 22681.0 1897.76   6
   9   2  -3 8782.55 1396.37   6
   9   2  -2 24892.6 1941.00   6
   9   3 -15 259.181 1130.82   6
   9   3 -14 6989.08 1556.83   6
   9   3 -13 1399.68 1222.18   6
   9   3 -12 13950.5 1849.86   6
   9   3 -11 1767.30 1136.46   6
   9   3 -10 8795.91 1523.41   6
   9   3  -9 270.574 1030.93   6
   9   3  -8 17710.7 1841.44   6
   9   3  -7 4540.62 1192.89   6
   9   3  -6 7274.44 1356.91   6
   9   3  -5 7073.55 1289.18   6
   9   3  -4 7850.12 1350.90   6
   9   4 -14 633.463 1133.21   6
   9   4 -13 6430.58 1481.46   6
   9   4 -12 3067.13 1274.23   6
   9   4 -11 4339.59 1296.53   6
   9   4 -10 617.656 1031.94   6
   9   4  -9 10321.0 1570.12   6
   9   4  -8 2744.45 1144.31   6
   9   4  -7 10518.3 1532.43   6
   9   4  -6 10420.1 1555.92   6
   9   5 -14 8269.19 1616.80   6
   9   5 -13 2017.74 1229.43   6
   9   5 -12 8111.61 1564.91   6
   9   5 -11 245.527 1021.29   6
   9   5 -10 7813.52 1460.44   6
   9   5  -9-291.281 1014.13   6
   9   6 -13 5520.91 1426.53   6
   9   6 -12-81.6371 1126.69   6
  10  -7  -5-747.416 1145.36   3
  10  -7  -4 3996.04 1149.70   7
  10  -7  -3 2294.68 1022.50   7
  10  -7  -2 3795.31 1123.04   7
  10  -7  -1 3705.91 1159.74   7
  10  -6  -7 3549.34 1113.05   7
  10  -6  -6 1054.94 1153.67   3
  10  -6  -6 464.707 864.123   7
  10  -6  -5 3451.99 1085.21   7
  10  -6  -4-156.085 869.998   7
  10  -6  -3 3632.64 1080.36   7
  10  -6  -2 2283.13 990.235   7
  10  -6  -1 5252.76 1188.94   7
  10  -6   0 3910.81 1133.62   7
  10  -6   1 6082.13 1254.01   7
  10  -6   2 5093.27 1196.38   7
  10  -6   3 3736.82 1114.78   7
  10  -6   4 7191.02 1346.85   7
  10  -6   5 2325.54 1026.73   7
  10  -6   6 11214.3 1585.07   7
  10  -5  -8 2545.29 984.336   7
  10  -5  -7 741.509 836.064   7
  10  -5  -6 4468.54 1087.70   7
  10  -5  -5 136.372 797.286   7
  10  -5  -4 5225.53 1160.10   7
  10  -5  -3 772.220 841.255   7
  10  -5  -2 14384.7 1587.59   7
  10  -5  -1 6144.01 1230.68   7
  10  -5   0 12835.9 1525.32   7
  10  -5   1 6015.69 1259.79   7
  10  -5   2 9871.02 1426.20   7
  10  -5   3 4588.73 1124.37   7
  10  -5   4 4341.51 1124.18   7
  10  -5   5 4752.70 1161.95   7
  10  -5   6 1948.61 966.143   7
  10  -5   7 3293.19 1080.59   7
  10  -5   8 823.895 933.896   7
  10  -5   9 4864.02 1253.84   7
  10  -4  -9 3196.78 993.798   7
  10  -4  -8 4468.99 1056.73   7
  10  -4  -7 3177.64 979.428   7
  10  -4  -6 2506.80 957.333   7
  10  -4  -5 3645.82 983.836   7
  10  -4  -4 2489.87 916.944   7
  10  -4  -3 9576.88 1336.30   7
  10  -4  -2 5199.01 1130.88   7
  10  -4  -1 21515.5 1827.73   7
  10  -4   0 7344.64 1245.07   7
  10  -4   1 6121.44 1218.26   6
  10  -4   1 4823.01 1110.51   7
  10  -4   2 4186.61 1088.08   6
  10  -4   2 2764.70 981.080   7
  10  -4   3 3425.15 1012.75   7
  10  -4   4 4872.45 1083.95   7
  10  -4   5 2192.37 977.977   7
  10  -4   6 6379.38 1229.89   7
  10  -4   7 1866.37 958.318   7
  10  -4   8 6888.81 1278.04   7
  10  -4   9 1149.65 956.603   7
  10  -4  10 7215.60 1318.35   7
  10  -4  11 278.756 896.949   7
  10  -4  12 4783.95 1201.12   7
  10  -3  -9 7381.25 1159.20   7
  10  -3  -8 663.668 773.621   7
  10  -3  -7 2282.01 867.531   7
  10  -3  -6 1917.64 897.632   7
  10  -3  -5 3897.65 1017.49   7
  10  -3  -4 5202.49 1088.52   7
  10  -3  -3 5638.52 1118.98   7
  10  -3  -2 19775.6 1696.28   7
  10  -3  -1 6064.99 1310.39   6
  10  -3  -1 8092.12 1268.96   7
  10  -3   0 13165.0 1538.05   6
  10  -3   0 13658.1 1474.44   7
  10  -3   1 4366.03 1121.57   6
  10  -3   1 5231.39 1080.69   7
  10  -3   2 4265.45 1051.97   6
  10  -3   2 4384.62 1026.20   7
  10  -3   3 812.919 825.407   6
  10  -3   3 1942.34 888.889   7
  10  -3   4 5820.18 1163.43   7
  10  -3   5 4280.34 1067.94   7
  10  -3   6 3140.16 1018.91   7
  10  -3   7 5725.12 1202.06   7
  10  -3   8 3836.51 1099.95   7
  10  -3   9 6050.65 1230.05   7
  10  -3  10-34.9106 821.021   7
  10  -3  11 7085.67 1263.08   7
  10  -3  12-300.237 845.673   7
  10  -3  13 3159.42 1044.23   7
  10  -2 -10 5429.64 1014.21   7
  10  -2  -9 338.641 716.090   7
  10  -2  -8 5218.10 1029.41   7
  10  -2  -7 2666.54 859.941   7
  10  -2  -6 2755.96 889.885   7
  10  -2  -5 5456.34 1037.20   7
  10  -2  -4 6001.72 1084.96   7
  10  -2  -3 13989.1 1660.55   6
  10  -2  -3 14185.9 1492.49   7
  10  -2  -2 9063.09 1431.25   6
  10  -2  -2 7478.85 1183.76   7
  10  -2  -1 18067.9 1781.46   6
  10  -2  -1 15375.4 1515.22   7
  10  -2   0 4142.78 1108.47   6
  10  -2   0 3324.63 959.339   7
  10  -2   1 15078.6 1552.32   6
  10  -2   1 13634.1 1479.05   7
  10  -2   2 1046.37 897.916   6
  10  -2   2 2156.12 913.406   7
  10  -2   3 8244.14 1226.10   7
  10  -2   3 8322.05 1223.57   6
  10  -2   4 466.714 813.582   7
  10  -2   5 6574.52 1153.52   7
  10  -2   6 2311.41 927.316   7
  10  -2   7 4560.67 1068.40   7
  10  -2   8 2165.49 943.586   7
  10  -2   9 1022.74 844.551   7
  10  -2  10 4139.72 1044.89   7
  10  -2  11-311.607 814.239   7
  10  -2  12 3320.21 975.974   7
  10  -1 -10 334.379 704.062   7
  10  -1  -9 12570.0 1369.50   7
  10  -1  -8 535.791 679.716   7
  10  -1  -7 9715.46 1223.84   7
  10  -1  -6 674.212 706.302   7
  10  -1  -5 7040.21 1362.36   6
  10  -1  -5 3993.64 908.235   7
  10  -1  -4 2062.06 1070.86   6
  10  -1  -4 2330.53 851.841   7
  10  -1  -3 10971.6 1520.62   6
  10  -1  -3 11468.8 1344.95   7
  10  -1  -2 2570.07 1074.34   6
  10  -1  -2 3375.51 928.813   7
  10  -1  -1 3386.71 1085.74   6
  10  -1  -1 2036.11 831.429   7
  10  -1   0 9109.25 1331.20   6
  10  -1   0 8427.86 1175.42   7
  10  -1   1-184.062 857.588   6
  10  -1   1 876.336 788.044   7
  10  -1   2 5007.62 1002.63   7
  10  -1   2 4210.34 1036.88   6
  10  -1   3 121.452 721.360   7
  10  -1   4 5609.18 1068.41   7
  10  -1   5 322.976 737.897   7
  10  -1   6 7943.05 1197.66   7
  10  -1   7 2056.00 900.643   7
  10  -1   8 3263.55 954.398   7
  10  -1   9 6136.13 1094.57   7
  10  -1  10 1273.49 787.476   7
  10  -1  11 3523.12 952.897   7
  10  -1  12 1549.03 825.439   7
  10   0  -7 941.329 1078.56   6
  10   0  -7 45.2511 752.334   7
  10   0  -6 3150.96 1147.10   6
  10   0  -6 3081.38 845.591   7
  10   0  -5 851.870 992.751   6
  10   0  -5-287.408 743.373   7
  10   0  -4 8435.28 1449.75   6
  10   0  -4 7784.02 1108.33   7
  10   0  -3 5813.96 1301.54   6
  10   0  -3 4146.90 941.461   7
  10   0  -2 11244.0 1522.04   6
  10   0  -2 9188.10 1216.14   7
  10   0  -1 7108.26 1278.32   6
  10   0  -1 6262.85 1036.55   7
  10   0   0 5051.13 1162.75   6
  10   0   0 3933.56 922.663   7
  10   0   1 15703.0 1478.57   7
  10   0   2 1630.96 810.207   7
  10   0   3 9190.72 1218.12   7
  10   0   4-161.598 711.454   7
  10   0   5 10577.5 1295.97   7
  10   0   6 861.359 799.163   7
  10   0   7 4981.66 1053.86   7
  10   0   8 1874.81 885.862   7
  10   0   9 2751.15 897.978   7
  10   1 -11 6857.59 1568.13   6
  10   1 -10 411.295 1094.39   6
  10   1  -9 8814.07 1555.53   6
  10   1  -8 605.206 1015.86   6
  10   1  -7 8545.17 1552.34   6
  10   1  -6 113.228 994.619   6
  10   1  -5 8273.29 1385.11   6
  10   1  -4 3531.65 1191.09   6
  10   1  -3 14003.9 1658.72   6
  10   1  -3 12170.8 1331.17   7
  10   1  -2 1705.60 1019.22   6
  10   1  -2 1721.01 772.629   7
  10   1  -1 5777.25 1039.01   7
  10   1  -1 5654.29 1236.63   6
  10   1   0 10497.9 1277.16   7
  10   1   1 3169.66 916.073   7
  10   1   2 13813.3 1435.41   7
  10   1   3 561.821 752.616   7
  10   1   4 10947.3 1357.85   7
  10   2 -12 3090.17 1360.48   6
  10   2 -11 4091.97 1422.26   6
  10   2 -10 4924.26 1418.61   6
  10   2  -9 931.704 1091.48   6
  10   2  -8 6538.46 1405.61   6
  10   2  -7 851.515 1062.44   6
  10   2  -6 10589.2 1588.36   6
  10   2  -5 2889.23 1167.66   6
  10   2  -4 12136.0 1644.95   6
  10   2  -3 3946.33 1258.61   6
  10   3 -12 5314.37 1476.04   6
  10   3 -11 1698.82 1199.11   6
  10   3 -10 5068.68 1358.40   6
  10   3  -9 2742.95 1235.83   6
  10   3  -8 4570.90 1296.75   6
  10   3  -7 11008.7 1672.85   6
  10   3  -6 1356.73 1111.19   6
  10   3  -5 9544.11 1512.15   6
  10   3  -4 4203.36 1317.40   6
  10   4 -11 5850.52 1513.90   6
  10   4 -10 1373.35 1194.66   6
  10   4  -9 7507.52 1559.29   6
  10   4  -8 7974.56 1537.69   6
  10   4  -7 2372.20 1211.11   6
  10   5 -10 4196.25 1360.07   6
  10   5  -9 2454.38 1250.07   6
  11  -5  -8 5626.21 1218.46   7
  11  -5  -7 354.296 921.535   7
  11  -5  -6 8725.36 1413.43   7
  11  -5  -5 509.953 852.296   7
  11  -5  -4 6380.29 1280.34   7
  11  -5  -3 1527.09 998.635   7
  11  -5  -2 6995.96 1320.04   7
  11  -5  -1 1830.37 967.622   7
  11  -5   0 5276.08 1259.08   7
  11  -5   1 1626.16 1000.41   7
  11  -4  -8 44.2577 825.399   7
  11  -4  -7 2085.90 941.470   7
  11  -4  -6-178.562 835.715   7
  11  -4  -5 5661.49 1223.21   7
  11  -4  -4 1700.01 956.882   7
  11  -4  -3 9011.51 1364.79   7
  11  -4  -2 6676.93 1281.41   7
  11  -4  -1 10797.4 1564.07   6
  11  -4  -1 12358.8 1551.56   7
  11  -4   0 7425.54 1407.51   6
  11  -4   0 9060.38 1400.00   7
  11  -4   1 5969.48 1242.07   7
  11  -4   2 3844.78 1087.27   7
  11  -4   3 1256.31 886.880   7
  11  -4   4 5217.86 1182.94   7
  11  -4   5 2023.45 1071.22   7
  11  -3  -9 1855.29 907.629   7
  11  -3  -8 3815.00 1038.45   7
  11  -3  -7 1550.97 850.946   7
  11  -3  -6 5771.39 1158.44   7
  11  -3  -5 1123.80 901.443   7
  11  -3  -4 9642.64 1377.96   7
  11  -3  -3 3614.14 1305.14   6
  11  -3  -3 2921.11 1015.90   7
  11  -3  -2 10440.5 1596.40   6
  11  -3  -2 10355.5 1424.95   7
  11  -3  -1 2923.57 1195.09   6
  11  -3  -1 4687.63 1120.04   7
  11  -3   0 4066.44 1172.40   6
  11  -3   0 4344.07 1090.28   7
  11  -3   1 2246.91 1053.24   6
  11  -3   1 2691.67 981.303   7
  11  -3   2 414.758 894.255   6
  11  -3   2 1378.67 916.719   7
  11  -3   3 1517.56 935.229   7
  11  -3   4 1964.71 959.208   7
  11  -3   5 7957.81 1377.26   7
  11  -3   6 1153.49 920.123   7
  11  -3   7 8777.16 1443.89   7
  11  -2  -9 1322.59 836.473   7
  11  -2  -8 1968.56 873.214   7
  11  -2  -7 1532.16 823.371   7
  11  -2  -6 538.353 771.877   7
  11  -2  -5 5304.35 1392.93   6
  11  -2  -5 6014.80 1138.05   7
  11  -2  -4 2773.69 1228.38   6
  11  -2  -4 1551.43 849.066   7
  11  -2  -3 10123.0 1602.54   6
  11  -2  -3 10047.3 1379.53   7
  11  -2  -2 5046.14 1362.46   6
  11  -2  -2 3995.25 1046.10   7
  11  -2  -1 5903.93 1348.48   6
  11  -2  -1 5606.56 1138.18   7
  11  -2   0 2431.86 1119.46   6
  11  -2   0 2400.02 922.033   7
  11  -2   1 3042.80 1096.07   6
  11  -2   1 2952.29 951.903   7
  11  -2   2 1151.90 856.129   7
  11  -2   2 1423.09 1017.09   6
  11  -2   3 4892.85 1129.47   7
  11  -2   4 3992.41 1096.55   7
  11  -2   5 3931.27 1124.06   7
  11  -2   6 7003.66 1285.54   7
  11  -2   7 1376.96 939.961   7
  11  -2   8 5051.73 1184.10   7
  11  -1  -9 3685.92 989.057   7
  11  -1  -8 280.791 743.395   7
  11  -1  -7 4987.82 1380.39   6
  11  -1  -7 3270.09 938.650   7
  11  -1  -6 4316.12 1334.72   6
  11  -1  -6 2690.55 887.209   7
  11  -1  -5 1021.34 1074.32   6
  11  -1  -5 950.164 786.940   7
  11  -1  -4 6653.15 1455.56   6
  11  -1  -4 6221.34 1152.28   7
  11  -1  -3 3458.81 1225.36   6
  11  -1  -3 3534.01 987.652   7
  11  -1  -2 8826.57 1474.89   6
  11  -1  -2 8488.41 1252.63   7
  11  -1  -1 1935.99 1106.26   6
  11  -1  -1 2514.06 935.465   7
  11  -1   0 9627.34 1494.22   6
  11  -1   0 9017.23 1326.77   7
  11  -1   1 2286.32 944.628   7
  11  -1   1 326.736 927.845   6
  11  -1   2 9008.63 1307.45   7
  11  -1   3 669.063 776.924   7
  11  -1   4 7278.27 1237.91   7
  11  -1   5 3425.44 1005.64   7
  11  -1   6 5515.13 1140.66   7
  11  -1   7 1368.15 853.850   7
  11  -1   8 2240.47 945.984   7
  11  -1   9 1747.09 930.077   7
  11   0  -9 251.220 1152.05   6
  11   0  -8 5835.95 1455.50   6
  11   0  -7 1621.81 1202.42   6
  11   0  -6 2480.39 1252.57   6
  11   0  -6 1757.21 845.461   7
  11   0  -5 3093.04 1258.28   6
  11   0  -5 2006.25 879.303   7
  11   0  -4 3669.43 1251.60   6
  11   0  -4 4028.58 1014.49   7
  11   0  -3 6881.14 1446.76   6
  11   0  -3 5679.00 1107.66   7
  11   0  -2 6059.70 1369.22   6
  11   0  -2 5664.49 1108.07   7
  11   0  -1 6063.56 1354.64   6
  11   0  -1 7586.66 1215.71   7
  11   0   0 1558.62 898.430   7
  11   0   0 547.594 977.638   6
  11   0   1 14079.0 1525.51   7
  11   0   2 731.986 824.330   7
  11   0   3 5127.81 1094.80   7
  11   0   4 1725.45 864.119   7
  11   0   5 4925.61 1097.19   7
  11   0   6 1657.35 880.073   7
  11   0   7 1923.66 934.139   7
  11   0   8 3186.59 1031.99   7
  11   1  -9 3735.36 1396.31   6
  11   1  -8 566.169 1161.13   6
  11   1  -7 4030.37 1339.65   6
  11   1  -6 2506.26 1258.45   6
  11   1  -5 5305.48 1380.43   6
  11   1  -4 11831.2 1740.66   6
  11   1  -3 10479.1 1624.96   6
  11   1  -2 9250.88 1579.30   6
  11   2  -9 574.228 1153.47   6
  11   2  -8 8138.33 1609.46   6
  11   2  -7 1169.49 1206.89   6
  11   2  -6 8768.61 1619.61   6
  11   2  -5 3978.35 1354.77   6
  11   2  -4 8990.31 1576.11   6
  11   2  -3 1767.71 1191.60   6
  11   3  -8-110.299 1124.55   6
  11   3  -7 7334.24 1532.51   6
  11   3  -6-265.500 1084.55   6
  11   3  -5 6510.53 1507.60   6
  12  -4  -3 3633.44 1392.54   6
  12  -4  -2 4657.27 1428.82   6
  12  -3  -4 4896.36 1489.74   6
  12  -3  -3 4979.27 1479.96   6
  12  -3  -2 6986.17 1602.37   6
  12  -3  -1 4075.40 1386.79   6
  12  -3   0 7943.39 1492.65   6
  12  -2  -5 4842.01 1459.25   6
  12  -2  -5 3613.56 1079.56   7
  12  -2  -4 2422.49 1359.57   6
  12  -2  -4 1443.94 933.092   7
  12  -2  -3 6886.69 1558.90   6
  12  -2  -2 3560.68 1333.00   6
  12  -2  -1 8289.06 1527.91   6
  12  -2   0 3823.65 1262.98   6
  12  -2   1 3530.80 1248.87   6
  12  -1  -8 2130.12 970.002   7
  12  -1  -7 501.376 838.258   7
  12  -1  -6 8277.62 1338.51   7
  12  -1  -5 2235.29 1367.09   6
  12  -1  -5 968.518 894.092   7
  12  -1  -4 11591.9 1797.51   6
  12  -1  -4 12431.4 1555.02   7
  12  -1  -3 5453.18 1468.25   6
  12  -1  -3 3834.81 1101.96   7
  12  -1  -2 9339.17 1633.21   6
  12  -1  -2 10157.2 1418.91   7
  12  -1  -1 2552.64 1236.06   6
  12  -1  -1 3002.33 1023.23   7
  12  -1   0 6957.74 1464.03   6
  12   0  -5 7289.56 1572.89   6
  12   0  -5 7233.35 1297.48   7
  12   0  -4 2782.92 1309.73   6
  12   0  -4 1392.16 947.058   7
  12   0  -3 6050.32 1498.85   6
  12   0  -3 7448.19 1305.44   7
  12   0  -2 1203.42 1182.82   6
  12   0  -2 1628.59 918.651   7
  12   0  -1 4151.16 1109.64   7
  12   0  -1 2558.46 1206.80   6
  12   1  -5 1456.09 1289.63   6
  12   1  -4 9538.71 1722.40   6
  12   1  -3 2029.56 1288.84   6
  12   2  -4 3035.94 1397.27   6
  13  -2  -1 3934.97 1414.68   6
   0   0   0    0.00    0.00   0
TITL EG23p_150 in P1
REM P1 (#1 in standard setting)
CELL 0.71073   9.599800   9.635381  16.146093 104.7941  94.5352  90.5357
ZERR    2.00   0.001014   0.000895   0.000847   0.0061   0.0061   0.0080
LATT -1
SFAC C H N O Dy
UNIT 40.00 40.00 48.00 12.00 2.00
TREF
HKLF 4
END
;
_shelx_hkl_checksum              54711

