####################################################################### 
# 
# This file contains crystal structure data downloaded from the 
# Cambridge Structural Database (CSD) hosted by the Cambridge 
# Crystallographic Data Centre (CCDC).
# 
# Full information about CCDC data access policies and citation 
# guidelines are available at http://www.ccdc.cam.ac.uk/access/V1 
# 
# Audit and citation data items may have been added by the CCDC. 
# Please retain this information to preserve the provenance of 
# this file and to allow appropriate attribution of the data. 
# 
#######################################################################

data_K1649
_audit_block_doi                 10.5517/ccdc.csd.cc2k024t
_database_code_depnum_ccdc_archive 'CCDC 2353555'
loop_
_citation_id
_citation_doi
_citation_year
1 10.1039/D4DT02200A 2025
loop_
_audit_author_name
_audit_author_address
'Jeffrey S. Ovens'
;Department of Chemistry and Biomolecular Sciences, University of Ottawa, Ottawa
Canada
;
_audit_update_record             
;
2024-05-06 deposited with the CCDC.	2025-03-26 downloaded from the CCDC.
;
#===============================================================================
# 5. CHEMICAL DATA

_chemical_name_systematic        
; 
;

_chemical_formula_sum            'C44 H60 Dy2 N4 O12'
_chemical_formula_moiety         'C44 H60 Dy2 N4 O12'
_chemical_formula_weight         1161.96
#=============================================================
# 6. CRYSTAL DATA

_space_group_crystal_system      triclinic
_space_group_IT_number           2
_space_group_name_H-M_alt        'P -1'
_space_group_name_Hall           '-P 1'

_shelx_space_group_comment       
;
The symmetry employed for this shelxl refinement is uniquely defined
by the following loop, which should always be used as a source of
symmetry information in preference to the above space-group names.
They are only intended as comments.
;

loop_
_space_group_symop_operation_xyz
'x, y, z'
'-x, -y, -z'

#------------------------------------------------
_cell_length_a                   9.2504(9)
_cell_length_b                   10.1281(10)
_cell_length_c                   14.0753(14)
_cell_angle_alpha                91.315(2)
_cell_angle_beta                 102.365(2)
_cell_angle_gamma                108.821(2)
_cell_volume                     1213.2(2)
_cell_formula_units_Z            1
_cell_measurement_temperature    200(2)
_cell_measurement_reflns_used    7970
_cell_measurement_theta_min      2.39
_cell_measurement_theta_max      28.35

_exptl_crystal_description       plate
_exptl_crystal_colour            colourless
_exptl_crystal_size_min          0.023
_exptl_crystal_size_mid          0.085
_exptl_crystal_size_max          0.135

_exptl_crystal_density_diffrn    1.590
_exptl_crystal_F_000             580
_exptl_absorpt_coefficient_mu    3.117
_exptl_absorpt_correction_type   multi-scan
_exptl_absorpt_correction_T_min  0.6670
_exptl_absorpt_correction_T_max  0.7457
_exptl_absorpt_process_details   SADABS

#=============================================================================
# 7. EXPERIMENTAL DATA

_diffrn_radiation_type           MoK\a
_diffrn_radiation_wavelength     0.71073
_diffrn_measurement_device_type  'Bruker APEX-II CCD'
_diffrn_radiation_monochromator  graphite
_diffrn_measurement_method       '\w and \phi scans'
_diffrn_ambient_temperature      200(2)
_diffrn_reflns_number            18083
_diffrn_reflns_av_unetI/netI     0.0604
_diffrn_reflns_av_R_equivalents  0.0486
_diffrn_reflns_limit_h_min       -12
_diffrn_reflns_limit_h_max       12
_diffrn_reflns_limit_k_min       -13
_diffrn_reflns_limit_k_max       13
_diffrn_reflns_limit_l_min       -18
_diffrn_reflns_limit_l_max       18
_diffrn_reflns_theta_min         1.488
_diffrn_reflns_theta_max         28.373
_diffrn_reflns_theta_full        25.242
_diffrn_measured_fraction_theta_max 0.999
_diffrn_measured_fraction_theta_full 1.000
_diffrn_reflns_Laue_measured_fraction_max 0.999
_diffrn_reflns_Laue_measured_fraction_full 1.000
_diffrn_reflns_point_group_measured_fraction_max 0.999
_diffrn_reflns_point_group_measured_fraction_full 1.000


#==========================================================================
# 8. REFINEMENT DATA

_reflns_special_details          
;
 Reflections were merged by SHELXL according to the crystal
 class for the calculation of statistics and refinement.
 
 _reflns_Friedel_fraction is defined as the number of unique
 Friedel pairs measured divided by the number that would be
 possible theoretically, ignoring centric projections and
 systematic absences.
;

_reflns_number_total             6067
_reflns_number_gt                4906
_reflns_threshold_expression     'I > 2\s(I)'
_reflns_Friedel_coverage         0.000
_reflns_Friedel_fraction_max     .
_reflns_Friedel_fraction_full    .

_refine_special_details          none

_refine_ls_structure_factor_coef Fsqd
_refine_ls_matrix_type           full
_refine_ls_hydrogen_treatment    constr
_refine_ls_extinction_method     none
_refine_ls_extinction_coef       .
_refine_ls_abs_structure_details none
_refine_ls_abs_structure_Flack   .
_refine_ls_number_reflns         6067
_refine_ls_number_parameters     337
_refine_ls_number_restraints     227
_refine_ls_R_factor_all          0.0522
_refine_ls_R_factor_gt           0.0341
_refine_ls_wR_factor_ref         0.0636
_refine_ls_wR_factor_gt          0.0582
_refine_ls_goodness_of_fit_ref   1.003
_refine_ls_restrained_S_all      0.994
_refine_ls_shift/su_max          0.001
_refine_ls_shift/su_mean         0.000

_refine_ls_weighting_scheme      calc
_refine_ls_weighting_details     
'w=1/[\s^2^(Fo^2^)+(0.0241P)^2^] where P=(Fo^2^+2Fc^2^)/3'

#---------------------------------------------------------


#========================================================== 
# 9. General computing 

_computing_data_collection       'Bruker APEX3'
_computing_data_reduction        'Bruker SAINT'
_computing_cell_refinement       'Bruker SAINT'
_computing_structure_solution    
; 
 SHELXT 2014/5 (Sheldrick, 2014)
;
_computing_structure_refinement  'SHELXL-2018/3 (Sheldrick, 2018)'
_shelx_SHELXL_version_number     2018/3

#===================================================================
# 10.  ATOMIC COORDINATES AND THERMAL PARAMETERS

_atom_sites_solution_primary     direct
_atom_sites_solution_hydrogens   geom

loop_
_atom_type_symbol
_atom_type_description
_atom_type_scat_dispersion_real
_atom_type_scat_dispersion_imag
_atom_type_scat_source
C C 0.0033 0.0016 'International Tables Vol C Tables 4.2.6.8 and 6.1.1.4'
H H 0.0000 0.0000 'International Tables Vol C Tables 4.2.6.8 and 6.1.1.4'
Dy Dy -0.1892 4.4098 'International Tables Vol C Tables 4.2.6.8 and 6.1.1.4'
N N 0.0061 0.0033 'International Tables Vol C Tables 4.2.6.8 and 6.1.1.4'
O O 0.0106 0.0060 'International Tables Vol C Tables 4.2.6.8 and 6.1.1.4'

#==============================================================================
# Uequiv = arithmetic mean of Ui
# i.e. Ueqiv = (U1+U2+U3)/3

loop_
_atom_site_label
_atom_site_type_symbol
_atom_site_fract_x
_atom_site_fract_y
_atom_site_fract_z
_atom_site_U_iso_or_equiv
_atom_site_adp_type
_atom_site_occupancy
_atom_site_site_symmetry_order
_atom_site_calc_flag
_atom_site_refinement_flags_posn
_atom_site_refinement_flags_adp
_atom_site_refinement_flags_occupancy
_atom_site_disorder_assembly
_atom_site_disorder_group
Dy1 Dy 0.34904(2) 0.71226(2) 0.64189(2) 0.02660(6) Uani 1 1 d . . . . .
O1 O 0.2452(3) 0.8110(3) 0.50901(19) 0.0373(6) Uani 1 1 d . . . . .
O2 O 0.5269(3) 0.7579(3) 0.54551(18) 0.0318(6) Uani 1 1 d . . . . .
O3 O 0.2580(3) 0.6242(3) 0.77733(18) 0.0366(6) Uani 1 1 d . . . . .
O4 O 0.4527(3) 0.5345(3) 0.68519(17) 0.0330(6) Uani 1 1 d . . . . .
O5 O 0.5821(3) 0.8299(3) 0.75436(18) 0.0403(7) Uani 1 1 d . . . . .
O6 O 0.3080(3) 0.8975(3) 0.71723(19) 0.0389(6) Uani 1 1 d . . . . .
N1 N 0.0457(3) 0.6226(3) 0.6050(2) 0.0281(7) Uani 1 1 d . . . . .
N2 N -0.1985(3) 0.4890(3) 0.4994(2) 0.0284(7) Uani 1 1 d . . . . .
C1 C -0.0413(4) 0.5308(4) 0.5290(2) 0.0237(7) Uani 1 1 d . . . . .
C2 C -0.0308(4) 0.6772(4) 0.6565(3) 0.0334(9) Uani 1 1 d . . . . .
H2 H 0.027987 0.742433 0.711885 0.040 Uiso 1 1 calc R U . . .
C3 C -0.1906(4) 0.6425(4) 0.6323(3) 0.0376(9) Uani 1 1 d . . . . .
H3 H -0.243470 0.683329 0.668837 0.045 Uiso 1 1 calc R U . . .
C4 C -0.2713(4) 0.5456(4) 0.5526(3) 0.0351(9) Uani 1 1 d . . . . .
H4 H -0.382680 0.518134 0.534675 0.042 Uiso 1 1 calc R U . . .
C6 C 0.1603(5) 0.8838(5) 0.3543(3) 0.0484(11) Uani 1 1 d D U . . .
H6A H 0.213093 0.963758 0.320594 0.058 Uiso 0.75(3) 1 calc R U P A 1
H6B H 0.089501 0.912567 0.387479 0.058 Uiso 0.75(3) 1 calc R U P A 1
H6C H 0.134969 0.962313 0.381640 0.058 Uiso 0.25(3) 1 calc R U P A 2
H6D H 0.202059 0.913264 0.296121 0.058 Uiso 0.25(3) 1 calc R U P A 2
C7 C 0.2828(5) 0.8495(4) 0.4298(3) 0.0327(9) Uani 1 1 d . . . . .
C8 C 0.4251(5) 0.8571(4) 0.4083(3) 0.0360(9) Uani 1 1 d . . . . .
H8 H 0.444568 0.893293 0.348852 0.043 Uiso 1 1 calc R U . . .
C9 C 0.5408(5) 0.8159(4) 0.4669(3) 0.0333(9) Uani 1 1 d . . . . .
C10 C 0.6925(5) 0.8348(4) 0.4357(3) 0.0466(11) Uani 1 1 d . . . . .
H10A H 0.685009 0.747689 0.400076 0.070 Uiso 1 1 calc R U . . .
H10B H 0.779974 0.858218 0.493624 0.070 Uiso 1 1 calc R U . . .
H10C H 0.710758 0.910873 0.393161 0.070 Uiso 1 1 calc R U . . .
C13 C 0.3000(5) 0.5529(4) 0.8438(3) 0.0371(8) Uani 1 1 d D U . . .
C14 C 0.4097(5) 0.4874(4) 0.8425(3) 0.0403(9) Uani 1 1 d D . . . .
H14 H 0.439045 0.443408 0.898832 0.048 Uiso 1 1 calc R U . . .
C15 C 0.4810(4) 0.4807(4) 0.7652(3) 0.0321(7) Uani 1 1 d . . . . .
C16 C 0.6016(5) 0.4079(5) 0.7773(3) 0.0469(10) Uani 1 1 d . . . . .
H16A H 0.600172 0.366376 0.713359 0.070 Uiso 1 1 calc R U . . .
H16B H 0.577004 0.333937 0.820892 0.070 Uiso 1 1 calc R U . . .
H16C H 0.706105 0.476019 0.805439 0.070 Uiso 1 1 calc R U . . .
C19 C 0.6180(5) 0.9139(4) 0.8306(3) 0.0419(9) Uani 1 1 d D U . . .
C20 C 0.5196(6) 0.9814(4) 0.8553(3) 0.0506(10) Uani 1 1 d D . . . .
H20 H 0.555756 1.038978 0.915632 0.061 Uiso 1 1 calc R U . . .
C21 C 0.3733(6) 0.9713(4) 0.7988(3) 0.0442(9) Uani 1 1 d . . . . .
C22 C 0.2801(7) 1.0553(5) 0.8324(4) 0.0722(16) Uani 1 1 d . . . . .
H22A H 0.273225 1.127381 0.788051 0.108 Uiso 1 1 calc R U . . .
H22B H 0.332987 1.100067 0.898790 0.108 Uiso 1 1 calc R U . . .
H22C H 0.174123 0.992456 0.831884 0.108 Uiso 1 1 calc R U . . .
C5A C 0.0636(16) 0.7597(10) 0.2791(11) 0.084(4) Uani 0.75(3) 1 d D U P A 1
H5AA H 0.130784 0.739402 0.239663 0.126 Uiso 0.75(3) 1 calc R U P A 1
H5AB H -0.022215 0.782127 0.236456 0.126 Uiso 0.75(3) 1 calc R U P A 1
H5AC H 0.019985 0.677560 0.312555 0.126 Uiso 0.75(3) 1 calc R U P A 1
C11A C 0.122(4) 0.630(4) 0.9299(19) 0.069(4) Uani 0.31(3) 1 d D U P B 1
H11A H 0.029921 0.568810 0.881581 0.104 Uiso 0.31(3) 1 calc R U P B 1
H11B H 0.154729 0.724046 0.907926 0.104 Uiso 0.31(3) 1 calc R U P B 1
H11C H 0.094027 0.635664 0.992941 0.104 Uiso 0.31(3) 1 calc R U P B 1
C12A C 0.254(3) 0.571(3) 0.9409(13) 0.055(4) Uani 0.31(3) 1 d D U P B 1
H12A H 0.222795 0.479067 0.967300 0.065 Uiso 0.31(3) 1 calc R U P B 1
H12B H 0.347362 0.634661 0.988592 0.065 Uiso 0.31(3) 1 calc R U P B 1
C17A C 0.851(4) 0.844(4) 0.894(4) 0.078(8) Uani 0.26(4) 1 d D U P C 1
H17A H 0.825598 0.797158 0.828256 0.117 Uiso 0.26(4) 1 calc R U P C 1
H17B H 0.806407 0.775715 0.937740 0.117 Uiso 0.26(4) 1 calc R U P C 1
H17C H 0.965300 0.882629 0.918628 0.117 Uiso 0.26(4) 1 calc R U P C 1
C18A C 0.784(2) 0.958(3) 0.892(3) 0.055(5) Uani 0.26(4) 1 d D U P C 1
H18A H 0.850635 1.039630 0.866100 0.066 Uiso 0.26(4) 1 calc R U P C 1
H18B H 0.784542 0.988318 0.959991 0.066 Uiso 0.26(4) 1 calc R U P C 1
C5B C 0.013(3) 0.756(3) 0.325(3) 0.082(8) Uani 0.25(3) 1 d D U P A 2
H5BA H -0.071478 0.783353 0.285031 0.123 Uiso 0.25(3) 1 calc R U P A 2
H5BB H -0.017819 0.718420 0.383595 0.123 Uiso 0.25(3) 1 calc R U P A 2
H5BC H 0.034112 0.685152 0.286875 0.123 Uiso 0.25(3) 1 calc R U P A 2
C11B C 0.186(2) 0.6633(12) 0.9580(11) 0.072(4) Uani 0.69(3) 1 d D U P B 2
H11D H 0.120943 0.692384 0.903915 0.108 Uiso 0.69(3) 1 calc R U P B 2
H11E H 0.288777 0.737500 0.979378 0.108 Uiso 0.69(3) 1 calc R U P B 2
H11F H 0.134573 0.646396 1.012601 0.108 Uiso 0.69(3) 1 calc R U P B 2
C12B C 0.2095(14) 0.5291(11) 0.9239(8) 0.048(2) Uani 0.69(3) 1 d D U P B 2
H12C H 0.267596 0.495300 0.980130 0.057 Uiso 0.69(3) 1 calc R U P B 2
H12D H 0.105682 0.455768 0.899081 0.057 Uiso 0.69(3) 1 calc R U P B 2
C17B C 0.8043(19) 0.8060(15) 0.9261(10) 0.072(3) Uani 0.74(4) 1 d D U P C 2
H17D H 0.788032 0.743514 0.867712 0.108 Uiso 0.74(4) 1 calc R U P C 2
H17E H 0.731589 0.758931 0.965956 0.108 Uiso 0.74(4) 1 calc R U P C 2
H17F H 0.912662 0.829292 0.964321 0.108 Uiso 0.74(4) 1 calc R U P C 2
C18B C 0.7751(11) 0.9354(15) 0.8966(11) 0.061(3) Uani 0.74(4) 1 d D U P C 2
H18C H 0.857280 0.987401 0.863381 0.073 Uiso 0.74(4) 1 calc R U P C 2
H18D H 0.785886 0.994922 0.956299 0.073 Uiso 0.74(4) 1 calc R U P C 2

loop_
_atom_site_aniso_label
_atom_site_aniso_U_11
_atom_site_aniso_U_22
_atom_site_aniso_U_33
_atom_site_aniso_U_23
_atom_site_aniso_U_13
_atom_site_aniso_U_12
Dy1 0.02016(8) 0.03453(10) 0.02338(9) 0.00206(6) 0.00493(6) 0.00703(7)
O1 0.0361(15) 0.0454(16) 0.0336(15) 0.0131(12) 0.0102(13) 0.0159(13)
O2 0.0264(13) 0.0426(15) 0.0283(14) 0.0066(11) 0.0100(11) 0.0116(12)
O3 0.0308(14) 0.0522(17) 0.0318(14) 0.0130(11) 0.0120(12) 0.0169(12)
O4 0.0337(14) 0.0410(15) 0.0276(12) 0.0041(10) 0.0075(11) 0.0168(12)
O5 0.0293(14) 0.0498(16) 0.0312(14) -0.0057(11) 0.0013(12) 0.0035(13)
O6 0.0424(16) 0.0350(15) 0.0406(14) 0.0024(11) 0.0168(12) 0.0105(13)
N1 0.0200(14) 0.0376(18) 0.0258(16) 0.0024(13) 0.0065(13) 0.0079(13)
N2 0.0209(15) 0.0352(17) 0.0282(16) 0.0013(13) 0.0038(13) 0.0096(13)
C1 0.0171(16) 0.0287(19) 0.0248(18) 0.0070(14) 0.0044(14) 0.0070(14)
C2 0.0263(19) 0.044(2) 0.028(2) -0.0037(17) 0.0058(16) 0.0105(17)
C3 0.027(2) 0.050(2) 0.038(2) -0.0051(18) 0.0089(18) 0.0164(18)
C4 0.0215(18) 0.046(2) 0.038(2) -0.0007(18) 0.0047(17) 0.0134(17)
C6 0.053(3) 0.052(3) 0.040(2) 0.015(2) 0.002(2) 0.022(2)
C7 0.041(2) 0.028(2) 0.028(2) 0.0051(16) 0.0041(18) 0.0121(17)
C8 0.048(2) 0.036(2) 0.027(2) 0.0077(17) 0.0171(19) 0.0140(19)
C9 0.040(2) 0.0251(19) 0.035(2) -0.0019(16) 0.0148(19) 0.0078(17)
C10 0.052(3) 0.046(3) 0.050(3) 0.012(2) 0.029(2) 0.015(2)
C13 0.035(2) 0.048(2) 0.0298(18) 0.0100(15) 0.0088(15) 0.0153(16)
C14 0.047(2) 0.053(3) 0.0277(19) 0.0122(17) 0.0087(17) 0.0252(19)
C15 0.0302(19) 0.034(2) 0.0285(15) 0.0001(13) 0.0014(14) 0.0093(15)
C16 0.051(3) 0.057(3) 0.038(2) 0.002(2) 0.004(2) 0.031(2)
C19 0.0449(19) 0.037(2) 0.0271(17) 0.0007(13) 0.0028(14) -0.0055(16)
C20 0.070(2) 0.042(2) 0.030(2) -0.0054(18) 0.0120(17) 0.0066(19)
C21 0.065(2) 0.033(2) 0.0364(18) 0.0055(14) 0.0247(15) 0.0102(18)
C22 0.117(5) 0.063(3) 0.058(3) 0.005(3) 0.044(3) 0.045(3)
C5A 0.083(7) 0.082(5) 0.066(7) -0.003(5) -0.024(5) 0.025(5)
C11A 0.099(9) 0.089(7) 0.048(8) 0.013(5) 0.042(7) 0.052(7)
C12A 0.066(8) 0.064(11) 0.041(5) 0.012(5) 0.028(6) 0.021(8)
C17A 0.042(11) 0.068(11) 0.081(18) -0.005(11) -0.027(11) -0.011(9)
C18A 0.045(4) 0.062(9) 0.030(8) 0.016(7) 0.001(4) -0.014(5)
C5B 0.066(12) 0.097(11) 0.065(13) 0.023(11) -0.017(10) 0.024(11)
C11B 0.105(9) 0.086(6) 0.049(7) 0.014(4) 0.039(7) 0.049(7)
C12B 0.049(5) 0.067(5) 0.032(4) 0.012(3) 0.016(3) 0.021(4)
C17B 0.057(6) 0.071(6) 0.063(6) -0.006(4) -0.016(5) 0.009(5)
C18B 0.054(3) 0.064(5) 0.040(4) -0.009(4) -0.009(3) 0.002(3)

_geom_special_details            
;
 All esds (except the esd in the dihedral angle between two l.s. planes)
 are estimated using the full covariance matrix.  The cell esds are taken
 into account individually in the estimation of esds in distances, angles
 and torsion angles; correlations between esds in cell parameters are only
 used when they are defined by crystal symmetry.  An approximate (isotropic)
 treatment of cell esds is used for estimating esds involving l.s. planes.
;

loop_
_geom_bond_atom_site_label_1
_geom_bond_atom_site_label_2
_geom_bond_distance
_geom_bond_site_symmetry_2
_geom_bond_publ_flag
Dy1 O2 2.292(2) . ?
Dy1 O6 2.308(3) . ?
Dy1 O1 2.315(3) . ?
Dy1 O5 2.317(2) . ?
Dy1 O3 2.328(2) . ?
Dy1 O4 2.334(3) . ?
Dy1 N1 2.585(3) . ?
Dy1 N2 2.617(3) 2_566 ?
O1 C7 1.270(4) . ?
O2 C9 1.275(4) . ?
O3 C13 1.266(4) . ?
O4 C15 1.277(4) . ?
O5 C19 1.268(4) . ?
O6 C21 1.271(5) . ?
N1 C1 1.326(4) . ?
N1 C2 1.336(4) . ?
N2 C4 1.337(4) . ?
N2 C1 1.343(4) . ?
C1 C1 1.480(6) 2_566 ?
C2 C3 1.367(5) . ?
C2 H2 0.9500 . ?
C3 C4 1.378(5) . ?
C3 H3 0.9500 . ?
C4 H4 0.9500 . ?
C6 C5B 1.512(16) . ?
C6 C7 1.514(6) . ?
C6 C5A 1.519(8) . ?
C6 H6A 0.9900 . ?
C6 H6B 0.9900 . ?
C6 H6C 0.9900 . ?
C6 H6D 0.9900 . ?
C7 C8 1.392(5) . ?
C8 C9 1.388(6) . ?
C8 H8 0.9500 . ?
C9 C10 1.515(5) . ?
C10 H10A 0.9800 . ?
C10 H10B 0.9800 . ?
C10 H10C 0.9800 . ?
C13 C14 1.382(5) . ?
C13 C12B 1.523(7) . ?
C13 C12A 1.538(12) . ?
C14 C15 1.399(5) . ?
C14 H14 0.9500 . ?
C15 C16 1.508(5) . ?
C16 H16A 0.9800 . ?
C16 H16B 0.9800 . ?
C16 H16C 0.9800 . ?
C19 C20 1.394(6) . ?
C19 C18B 1.494(8) . ?
C19 C18A 1.510(15) . ?
C20 C21 1.386(6) . ?
C20 H20 0.9500 . ?
C21 C22 1.523(6) . ?
C22 H22A 0.9800 . ?
C22 H22B 0.9800 . ?
C22 H22C 0.9800 . ?
C5A H5AA 0.9800 . ?
C5A H5AB 0.9800 . ?
C5A H5AC 0.9800 . ?
C11A C12A 1.512(15) . ?
C11A H11A 0.9800 . ?
C11A H11B 0.9800 . ?
C11A H11C 0.9800 . ?
C12A H12A 0.9900 . ?
C12A H12B 0.9900 . ?
C17A C18A 1.479(15) . ?
C17A H17A 0.9800 . ?
C17A H17B 0.9800 . ?
C17A H17C 0.9800 . ?
C18A H18A 0.9900 . ?
C18A H18B 0.9900 . ?
C5B H5BA 0.9800 . ?
C5B H5BB 0.9800 . ?
C5B H5BC 0.9800 . ?
C11B C12B 1.525(10) . ?
C11B H11D 0.9800 . ?
C11B H11E 0.9800 . ?
C11B H11F 0.9800 . ?
C12B H12C 0.9900 . ?
C12B H12D 0.9900 . ?
C17B C18B 1.473(10) . ?
C17B H17D 0.9800 . ?
C17B H17E 0.9800 . ?
C17B H17F 0.9800 . ?
C18B H18C 0.9900 . ?
C18B H18D 0.9900 . ?

loop_
_geom_angle_atom_site_label_1
_geom_angle_atom_site_label_2
_geom_angle_atom_site_label_3
_geom_angle
_geom_angle_site_symmetry_1
_geom_angle_site_symmetry_3
_geom_angle_publ_flag
O2 Dy1 O6 119.08(9) . . ?
O2 Dy1 O1 74.00(9) . . ?
O6 Dy1 O1 78.29(9) . . ?
O2 Dy1 O5 78.20(9) . . ?
O6 Dy1 O5 73.97(10) . . ?
O1 Dy1 O5 123.54(10) . . ?
O2 Dy1 O3 152.86(9) . . ?
O6 Dy1 O3 75.41(9) . . ?
O1 Dy1 O3 133.08(9) . . ?
O5 Dy1 O3 85.01(9) . . ?
O2 Dy1 O4 82.13(9) . . ?
O6 Dy1 O4 138.69(9) . . ?
O1 Dy1 O4 142.95(9) . . ?
O5 Dy1 O4 77.02(9) . . ?
O3 Dy1 O4 73.34(9) . . ?
O2 Dy1 N1 133.61(9) . . ?
O6 Dy1 N1 79.97(9) . . ?
O1 Dy1 N1 69.18(9) . . ?
O5 Dy1 N1 146.72(9) . . ?
O3 Dy1 N1 68.46(9) . . ?
O4 Dy1 N1 112.00(9) . . ?
O2 Dy1 N2 80.32(9) . 2_566 ?
O6 Dy1 N2 138.47(10) . 2_566 ?
O1 Dy1 N2 72.44(9) . 2_566 ?
O5 Dy1 N2 147.39(9) . 2_566 ?
O3 Dy1 N2 104.22(9) . 2_566 ?
O4 Dy1 N2 75.97(9) . 2_566 ?
N1 Dy1 N2 62.51(9) . 2_566 ?
C7 O1 Dy1 135.6(2) . . ?
C9 O2 Dy1 136.2(2) . . ?
C13 O3 Dy1 134.8(2) . . ?
C15 O4 Dy1 132.9(2) . . ?
C19 O5 Dy1 134.0(3) . . ?
C21 O6 Dy1 133.1(3) . . ?
C1 N1 C2 116.8(3) . . ?
C1 N1 Dy1 121.9(2) . . ?
C2 N1 Dy1 121.0(2) . . ?
C4 N2 C1 116.0(3) . . ?
C4 N2 Dy1 123.0(2) . 2_566 ?
C1 N2 Dy1 120.6(2) . 2_566 ?
N1 C1 N2 125.7(3) . . ?
N1 C1 C1 117.6(4) . 2_566 ?
N2 C1 C1 116.8(4) . 2_566 ?
N1 C2 C3 122.3(3) . . ?
N1 C2 H2 118.8 . . ?
C3 C2 H2 118.8 . . ?
C2 C3 C4 116.9(3) . . ?
C2 C3 H3 121.6 . . ?
C4 C3 H3 121.6 . . ?
N2 C4 C3 122.3(3) . . ?
N2 C4 H4 118.8 . . ?
C3 C4 H4 118.8 . . ?
C5B C6 C7 109.8(12) . . ?
C7 C6 C5A 111.9(5) . . ?
C7 C6 H6A 109.2 . . ?
C5A C6 H6A 109.2 . . ?
C7 C6 H6B 109.2 . . ?
C5A C6 H6B 109.2 . . ?
H6A C6 H6B 107.9 . . ?
C5B C6 H6C 109.7 . . ?
C7 C6 H6C 109.7 . . ?
C5B C6 H6D 109.7 . . ?
C7 C6 H6D 109.7 . . ?
H6C C6 H6D 108.2 . . ?
O1 C7 C8 124.2(4) . . ?
O1 C7 C6 116.5(4) . . ?
C8 C7 C6 119.3(4) . . ?
C9 C8 C7 125.0(4) . . ?
C9 C8 H8 117.5 . . ?
C7 C8 H8 117.5 . . ?
O2 C9 C8 124.3(3) . . ?
O2 C9 C10 116.5(4) . . ?
C8 C9 C10 119.2(4) . . ?
C9 C10 H10A 109.5 . . ?
C9 C10 H10B 109.5 . . ?
H10A C10 H10B 109.5 . . ?
C9 C10 H10C 109.5 . . ?
H10A C10 H10C 109.5 . . ?
H10B C10 H10C 109.5 . . ?
O3 C13 C14 124.4(3) . . ?
O3 C13 C12B 115.7(5) . . ?
C14 C13 C12B 119.6(5) . . ?
O3 C13 C12A 115.8(9) . . ?
C14 C13 C12A 118.1(8) . . ?
C13 C14 C15 125.4(4) . . ?
C13 C14 H14 117.3 . . ?
C15 C14 H14 117.3 . . ?
O4 C15 C14 124.2(4) . . ?
O4 C15 C16 117.4(3) . . ?
C14 C15 C16 118.4(4) . . ?
C15 C16 H16A 109.5 . . ?
C15 C16 H16B 109.5 . . ?
H16A C16 H16B 109.5 . . ?
C15 C16 H16C 109.5 . . ?
H16A C16 H16C 109.5 . . ?
H16B C16 H16C 109.5 . . ?
O5 C19 C20 124.1(4) . . ?
O5 C19 C18B 115.6(6) . . ?
C20 C19 C18B 120.3(6) . . ?
O5 C19 C18A 118.5(13) . . ?
C20 C19 C18A 117.0(12) . . ?
C21 C20 C19 125.2(4) . . ?
C21 C20 H20 117.4 . . ?
C19 C20 H20 117.4 . . ?
O6 C21 C20 125.0(4) . . ?
O6 C21 C22 115.1(4) . . ?
C20 C21 C22 119.9(4) . . ?
C21 C22 H22A 109.5 . . ?
C21 C22 H22B 109.5 . . ?
H22A C22 H22B 109.5 . . ?
C21 C22 H22C 109.5 . . ?
H22A C22 H22C 109.5 . . ?
H22B C22 H22C 109.5 . . ?
C6 C5A H5AA 109.5 . . ?
C6 C5A H5AB 109.5 . . ?
H5AA C5A H5AB 109.5 . . ?
C6 C5A H5AC 109.5 . . ?
H5AA C5A H5AC 109.5 . . ?
H5AB C5A H5AC 109.5 . . ?
C12A C11A H11A 109.5 . . ?
C12A C11A H11B 109.5 . . ?
H11A C11A H11B 109.5 . . ?
C12A C11A H11C 109.5 . . ?
H11A C11A H11C 109.5 . . ?
H11B C11A H11C 109.5 . . ?
C11A C12A C13 112.7(14) . . ?
C11A C12A H12A 109.0 . . ?
C13 C12A H12A 109.0 . . ?
C11A C12A H12B 109.0 . . ?
C13 C12A H12B 109.0 . . ?
H12A C12A H12B 107.8 . . ?
C18A C17A H17A 109.5 . . ?
C18A C17A H17B 109.5 . . ?
H17A C17A H17B 109.5 . . ?
C18A C17A H17C 109.5 . . ?
H17A C17A H17C 109.5 . . ?
H17B C17A H17C 109.5 . . ?
C17A C18A C19 112.0(16) . . ?
C17A C18A H18A 109.2 . . ?
C19 C18A H18A 109.2 . . ?
C17A C18A H18B 109.2 . . ?
C19 C18A H18B 109.2 . . ?
H18A C18A H18B 107.9 . . ?
C6 C5B H5BA 109.5 . . ?
C6 C5B H5BB 109.5 . . ?
H5BA C5B H5BB 109.5 . . ?
C6 C5B H5BC 109.5 . . ?
H5BA C5B H5BC 109.5 . . ?
H5BB C5B H5BC 109.5 . . ?
C12B C11B H11D 109.5 . . ?
C12B C11B H11E 109.5 . . ?
H11D C11B H11E 109.5 . . ?
C12B C11B H11F 109.5 . . ?
H11D C11B H11F 109.5 . . ?
H11E C11B H11F 109.5 . . ?
C13 C12B C11B 111.4(7) . . ?
C13 C12B H12C 109.3 . . ?
C11B C12B H12C 109.3 . . ?
C13 C12B H12D 109.3 . . ?
C11B C12B H12D 109.3 . . ?
H12C C12B H12D 108.0 . . ?
C18B C17B H17D 109.5 . . ?
C18B C17B H17E 109.5 . . ?
H17D C17B H17E 109.5 . . ?
C18B C17B H17F 109.5 . . ?
H17D C17B H17F 109.5 . . ?
H17E C17B H17F 109.5 . . ?
C17B C18B C19 115.0(7) . . ?
C17B C18B H18C 108.5 . . ?
C19 C18B H18C 108.5 . . ?
C17B C18B H18D 108.5 . . ?
C19 C18B H18D 108.5 . . ?
H18C C18B H18D 107.5 . . ?

loop_
_geom_torsion_atom_site_label_1
_geom_torsion_atom_site_label_2
_geom_torsion_atom_site_label_3
_geom_torsion_atom_site_label_4
_geom_torsion
_geom_torsion_site_symmetry_1
_geom_torsion_site_symmetry_2
_geom_torsion_site_symmetry_3
_geom_torsion_site_symmetry_4
_geom_torsion_publ_flag
C2 N1 C1 N2 0.3(5) . . . . ?
Dy1 N1 C1 N2 -173.4(3) . . . . ?
C2 N1 C1 C1 -180.0(4) . . . 2_566 ?
Dy1 N1 C1 C1 6.3(5) . . . 2_566 ?
C4 N2 C1 N1 -0.3(5) . . . . ?
Dy1 N2 C1 N1 -173.8(3) 2_566 . . . ?
C4 N2 C1 C1 180.0(4) . . . 2_566 ?
Dy1 N2 C1 C1 6.6(5) 2_566 . . 2_566 ?
C1 N1 C2 C3 -0.8(6) . . . . ?
Dy1 N1 C2 C3 173.0(3) . . . . ?
N1 C2 C3 C4 1.2(6) . . . . ?
C1 N2 C4 C3 0.7(6) . . . . ?
Dy1 N2 C4 C3 174.0(3) 2_566 . . . ?
C2 C3 C4 N2 -1.1(6) . . . . ?
Dy1 O1 C7 C8 -9.5(6) . . . . ?
Dy1 O1 C7 C6 168.4(3) . . . . ?
C5B C6 C7 O1 -60(2) . . . . ?
C5A C6 C7 O1 -95.5(10) . . . . ?
C5B C6 C7 C8 118(2) . . . . ?
C5A C6 C7 C8 82.5(10) . . . . ?
O1 C7 C8 C9 4.2(6) . . . . ?
C6 C7 C8 C9 -173.6(4) . . . . ?
Dy1 O2 C9 C8 -8.4(6) . . . . ?
Dy1 O2 C9 C10 173.9(2) . . . . ?
C7 C8 C9 O2 4.4(6) . . . . ?
C7 C8 C9 C10 -178.0(4) . . . . ?
Dy1 O3 C13 C14 -10.7(6) . . . . ?
Dy1 O3 C13 C12B 175.3(6) . . . . ?
Dy1 O3 C13 C12A 154.4(14) . . . . ?
O3 C13 C14 C15 -5.3(7) . . . . ?
C12B C13 C14 C15 168.5(7) . . . . ?
C12A C13 C14 C15 -170.1(15) . . . . ?
Dy1 O4 C15 C14 21.4(5) . . . . ?
Dy1 O4 C15 C16 -157.4(3) . . . . ?
C13 C14 C15 O4 -0.2(7) . . . . ?
C13 C14 C15 C16 178.5(4) . . . . ?
Dy1 O5 C19 C20 -14.4(6) . . . . ?
Dy1 O5 C19 C18B 164.1(8) . . . . ?
Dy1 O5 C19 C18A 173.6(18) . . . . ?
O5 C19 C20 C21 -2.9(7) . . . . ?
C18B C19 C20 C21 178.7(9) . . . . ?
C18A C19 C20 C21 169.3(19) . . . . ?
Dy1 O6 C21 C20 18.2(6) . . . . ?
Dy1 O6 C21 C22 -163.2(3) . . . . ?
C19 C20 C21 O6 0.9(7) . . . . ?
C19 C20 C21 C22 -177.6(4) . . . . ?
O3 C13 C12A C11A 20(4) . . . . ?
C14 C13 C12A C11A -174(3) . . . . ?
O5 C19 C18A C17A -35(4) . . . . ?
C20 C19 C18A C17A 152(3) . . . . ?
O3 C13 C12B C11B -44.2(17) . . . . ?
C14 C13 C12B C11B 141.5(12) . . . . ?
O5 C19 C18B C17B -52.8(14) . . . . ?
C20 C19 C18B C17B 125.8(11) . . . . ?

loop_
_geom_hbond_atom_site_label_D
_geom_hbond_atom_site_label_H
_geom_hbond_atom_site_label_A
_geom_hbond_distance_DH
_geom_hbond_distance_HA
_geom_hbond_distance_DA
_geom_hbond_angle_DHA
_geom_hbond_site_symmetry_A
_geom_hbond_publ_flag
C2 H2 O6 0.95 2.54 3.127(4) 120.0 . yes
C10 H10C O6 0.98 2.54 3.501(5) 166.6 2_676 yes

_refine_diff_density_max         1.730
_refine_diff_density_min         -0.616
_refine_diff_density_rms         0.122

_shelx_res_file                  
;
TITL K1649
    K1649_0m_a.res
    created by SHELXL-2018/3 at 10:49:00 on 02-May-2023
CELL  0.71073   9.2504  10.1281  14.0753   91.315  102.365  108.821
ZERR   1.000   0.0009   0.0010   0.0014    0.002    0.002    0.002
LATT  1
SFAC C H DY N O
UNIT 44 60 2 4 12
TEMP -73.100
SIZE 0.023 0.085 0.135
L.S. 30
BOND $H
LIST 4
ACTA
CONF
HTAB C2 O6
EQIV $2 -x+1, -y+2, -z+1
HTAB C10 O6_$2
REM ###
SADI C6 C5A C6 C5B
SIMU 0.01 C6 C5A C5B
REM ###
SADI C13 C12A C13 C12B C12A C11A C12B C11B
SADI C13 C11A C13 C11B
SADI C14 C12A C14 C12B
SIMU 0.02 C13 C12A C12B
SIMU 0.002 C11A C11B
RIGU 0.001 C11A C11B C12A C12B C13 C14 C15 C16 O3 O4
REM ###
SADI C19 C18A C19 C18B C18A C17A C18B C17B
SADI C19 C17A C19 C17B
SADI C20 C18A C20 C18B
SIMU 0.02 C19 C18A C18B C17A C17B
RIGU 0.001 C17A C17B C18A C18B C19 C20 C21 C22 O5 O6
REM ###
FMAP 2
PLAN 20
WGHT    0.024100
FVAR       0.43524   0.74750   0.30989   0.26074
DY1   3    0.349042    0.712264    0.641887    11.00000    0.02016    0.03453 =
         0.02338    0.00206    0.00493    0.00703
O1    5    0.245169    0.811022    0.509012    11.00000    0.03613    0.04540 =
         0.03355    0.01307    0.01023    0.01586
O2    5    0.526878    0.757933    0.545506    11.00000    0.02638    0.04261 =
         0.02826    0.00657    0.01004    0.01159
O3    5    0.258007    0.624154    0.777332    11.00000    0.03082    0.05216 =
         0.03184    0.01303    0.01204    0.01687
O4    5    0.452736    0.534541    0.685189    11.00000    0.03375    0.04095 =
         0.02758    0.00408    0.00751    0.01682
O5    5    0.582149    0.829887    0.754357    11.00000    0.02929    0.04984 =
         0.03124   -0.00570    0.00131    0.00348
O6    5    0.307968    0.897462    0.717225    11.00000    0.04243    0.03503 =
         0.04064    0.00238    0.01678    0.01054
N1    4    0.045662    0.622631    0.604989    11.00000    0.01997    0.03756 =
         0.02585    0.00241    0.00646    0.00794
N2    4   -0.198529    0.489004    0.499436    11.00000    0.02088    0.03522 =
         0.02815    0.00128    0.00378    0.00958
C1    1   -0.041257    0.530849    0.528997    11.00000    0.01706    0.02870 =
         0.02482    0.00701    0.00436    0.00698
C2    1   -0.030784    0.677222    0.656509    11.00000    0.02629    0.04393 =
         0.02848   -0.00366    0.00584    0.01049
AFIX  43
H2    2    0.027987    0.742433    0.711885    11.00000   -1.20000
AFIX   0
C3    1   -0.190552    0.642546    0.632343    11.00000    0.02739    0.04992 =
         0.03814   -0.00514    0.00888    0.01637
AFIX  43
H3    2   -0.243470    0.683329    0.668837    11.00000   -1.20000
AFIX   0
C4    1   -0.271332    0.545643    0.552552    11.00000    0.02155    0.04631 =
         0.03759   -0.00068    0.00473    0.01344
AFIX  43
H4    2   -0.382680    0.518134    0.534675    11.00000   -1.20000
AFIX   0
C6    1    0.160294    0.883824    0.354260    11.00000    0.05256    0.05238 =
         0.03950    0.01471    0.00185    0.02160
PART 1
AFIX  23
H6A   2    0.213093    0.963758    0.320594    21.00000   -1.20000
H6B   2    0.089501    0.912567    0.387479    21.00000   -1.20000
AFIX  23
PART 2
H6C   2    0.134969    0.962313    0.381640   -21.00000   -1.20000
H6D   2    0.202059    0.913264    0.296121   -21.00000   -1.20000
AFIX   0
PART 0
C7    1    0.282778    0.849453    0.429843    11.00000    0.04080    0.02769 =
         0.02836    0.00511    0.00410    0.01213
C8    1    0.425116    0.857092    0.408282    11.00000    0.04818    0.03641 =
         0.02749    0.00768    0.01708    0.01400
AFIX  43
H8    2    0.444568    0.893293    0.348852    11.00000   -1.20000
AFIX   0
C9    1    0.540772    0.815886    0.466938    11.00000    0.03994    0.02505 =
         0.03526   -0.00189    0.01482    0.00776
C10   1    0.692526    0.834840    0.435691    11.00000    0.05176    0.04602 =
         0.05001    0.01223    0.02913    0.01541
AFIX 137
H10A  2    0.685009    0.747689    0.400076    11.00000   -1.50000
H10B  2    0.779974    0.858218    0.493624    11.00000   -1.50000
H10C  2    0.710758    0.910873    0.393161    11.00000   -1.50000
AFIX   0
C13   1    0.300010    0.552871    0.843775    11.00000    0.03514    0.04826 =
         0.02981    0.00997    0.00883    0.01527
C14   1    0.409671    0.487438    0.842548    11.00000    0.04699    0.05304 =
         0.02767    0.01225    0.00875    0.02524
AFIX  43
H14   2    0.439045    0.443408    0.898832    11.00000   -1.20000
AFIX   0
C15   1    0.481001    0.480691    0.765245    11.00000    0.03017    0.03378 =
         0.02850    0.00015    0.00140    0.00927
C16   1    0.601625    0.407885    0.777288    11.00000    0.05139    0.05717 =
         0.03821    0.00191    0.00401    0.03084
AFIX 137
H16A  2    0.600172    0.366376    0.713359    11.00000   -1.50000
H16B  2    0.577004    0.333937    0.820892    11.00000   -1.50000
H16C  2    0.706105    0.476019    0.805439    11.00000   -1.50000
AFIX   0
C19   1    0.617996    0.913867    0.830596    11.00000    0.04493    0.03665 =
         0.02713    0.00065    0.00282   -0.00546
C20   1    0.519622    0.981430    0.855304    11.00000    0.06963    0.04238 =
         0.03044   -0.00540    0.01202    0.00656
AFIX  43
H20   2    0.555756    1.038978    0.915632    11.00000   -1.20000
AFIX   0
C21   1    0.373294    0.971276    0.798817    11.00000    0.06479    0.03304 =
         0.03644    0.00546    0.02465    0.01024
C22   1    0.280101    1.055283    0.832377    11.00000    0.11742    0.06315 =
         0.05801    0.00478    0.04354    0.04521
AFIX 137
H22A  2    0.273225    1.127381    0.788051    11.00000   -1.50000
H22B  2    0.332987    1.100067    0.898790    11.00000   -1.50000
H22C  2    0.174123    0.992456    0.831884    11.00000   -1.50000
AFIX   0
PART 1
C5A   1    0.063634    0.759715    0.279060    21.00000    0.08327    0.08151 =
         0.06580   -0.00306   -0.02395    0.02506
AFIX 137
H5AA  2    0.130784    0.739402    0.239663    21.00000   -1.50000
H5AB  2   -0.022215    0.782127    0.236456    21.00000   -1.50000
H5AC  2    0.019985    0.677560    0.312555    21.00000   -1.50000
AFIX   0
C11A  1    0.121588    0.630103    0.929861    31.00000    0.09890    0.08870 =
         0.04767    0.01299    0.04190    0.05173
AFIX 137
H11A  2    0.029921    0.568810    0.881581    31.00000   -1.50000
H11B  2    0.154729    0.724046    0.907926    31.00000   -1.50000
H11C  2    0.094027    0.635664    0.992941    31.00000   -1.50000
AFIX   0
C12A  1    0.254430    0.571139    0.940870    31.00000    0.06582    0.06405 =
         0.04102    0.01248    0.02809    0.02102
AFIX  23
H12A  2    0.222795    0.479067    0.967300    31.00000   -1.20000
H12B  2    0.347362    0.634661    0.988592    31.00000   -1.20000
AFIX   0
C17A  1    0.850970    0.843790    0.894432    41.00000    0.04207    0.06844 =
         0.08056   -0.00536   -0.02699   -0.01089
AFIX 137
H17A  2    0.825598    0.797158    0.828256    41.00000   -1.50000
H17B  2    0.806407    0.775715    0.937740    41.00000   -1.50000
H17C  2    0.965300    0.882629    0.918628    41.00000   -1.50000
AFIX   0
C18A  1    0.783950    0.958324    0.892428    41.00000    0.04549    0.06229 =
         0.02964    0.01571    0.00107   -0.01376
AFIX  23
H18A  2    0.850635    1.039630    0.866100    41.00000   -1.20000
H18B  2    0.784542    0.988318    0.959991    41.00000   -1.20000
AFIX   0
PART 0
PART 2
C5B   1    0.013355    0.756489    0.324854   -21.00000    0.06587    0.09727 =
         0.06475    0.02274   -0.01740    0.02370
AFIX 137
H5BA  2   -0.071478    0.783353    0.285031   -21.00000   -1.50000
H5BB  2   -0.017819    0.718420    0.383595   -21.00000   -1.50000
H5BC  2    0.034112    0.685152    0.286875   -21.00000   -1.50000
AFIX   0
C11B  1    0.186383    0.663337    0.958004   -31.00000    0.10461    0.08625 =
         0.04914    0.01385    0.03928    0.04936
AFIX 137
H11D  2    0.120943    0.692384    0.903915   -31.00000   -1.50000
H11E  2    0.288777    0.737500    0.979378   -31.00000   -1.50000
H11F  2    0.134573    0.646396    1.012601   -31.00000   -1.50000
AFIX   0
C12B  1    0.209503    0.529071    0.923948   -31.00000    0.04894    0.06669 =
         0.03194    0.01161    0.01614    0.02055
AFIX  23
H12C  2    0.267596    0.495300    0.980130   -31.00000   -1.20000
H12D  2    0.105682    0.455768    0.899081   -31.00000   -1.20000
AFIX   0
C17B  1    0.804285    0.805956    0.926126   -41.00000    0.05688    0.07138 =
         0.06322   -0.00630   -0.01564    0.00898
AFIX 137
H17D  2    0.788032    0.743514    0.867712   -41.00000   -1.50000
H17E  2    0.731589    0.758931    0.965956   -41.00000   -1.50000
H17F  2    0.912662    0.829292    0.964321   -41.00000   -1.50000
AFIX   0
C18B  1    0.775084    0.935417    0.896649   -41.00000    0.05433    0.06419 =
         0.03964   -0.00858   -0.00939    0.00215
AFIX  23
H18C  2    0.857280    0.987401    0.863381   -41.00000   -1.20000
H18D  2    0.785886    0.994922    0.956299   -41.00000   -1.20000
PART 0
AFIX   0
HKLF 4




REM  K1649
REM wR2 = 0.0636, GooF = S = 1.003, Restrained GooF = 0.994 for all data
REM R1 = 0.0341 for 4906 Fo > 4sig(Fo) and 0.0522 for all 6067 data
REM 337 parameters refined using 227 restraints

END

WGHT      0.0244      0.0000

REM Highest difference peak  1.730,  deepest hole -0.616,  1-sigma level  0.122
Q1    1   0.9526  0.8652  1.0758  11.00000  0.05    1.73
Q2    1   0.1411  1.0042  0.8282  11.00000  0.05    0.66
Q3    1   0.3283  0.7534  0.6944  11.00000  0.05    0.63
Q4    1   0.3506  0.6731  0.5888  11.00000  0.05    0.59
Q5    1   0.2786  0.6700  0.9623  11.00000  0.05    0.49
Q6    1   0.4953  0.7252  0.7012  11.00000  0.05    0.49
Q7    1   0.3111  0.6913  0.5770  11.00000  0.05    0.49
Q8    1   0.4379  0.6465  0.9814  11.00000  0.05    0.48
Q9    1  -0.0443  0.9037  0.7381  11.00000  0.05    0.48
Q10   1   0.4538  0.6214  0.7159  11.00000  0.05    0.48
Q11   1   0.2060  1.0524  0.7665  11.00000  0.05    0.48
Q12   1   0.0227  0.8202  0.3833  11.00000  0.05    0.48
Q13   1   0.6267  0.3990  0.8414  11.00000  0.05    0.47
Q14   1   0.0751  0.9596  0.7117  11.00000  0.05    0.47
Q15   1   0.8361  0.8386  1.0942  11.00000  0.05    0.46
Q16   1   0.3074  0.5958  0.6226  11.00000  0.05    0.46
Q17   1   0.2007  0.6998  0.5755  11.00000  0.05    0.46
Q18   1   0.3000  0.7442  0.8262  11.00000  0.05    0.45
Q19   1   0.3017  0.6364  0.7084  11.00000  0.05    0.45
Q20   1   0.1392  0.9060  0.8433  11.00000  0.05    0.45
;
_shelx_res_checksum              33792

_shelx_hkl_file                  
;
  -1   0   0 3699.03   70.19
  -1   0   0 3562.54   69.99
  -1   0   0 3551.94   72.19
   1   0   0 3536.85   72.09
   1   0   0 3611.54   70.19
   1   0   0 3703.83   69.99
  -2   0   0  829.42   21.20
  -2   0   0  855.01   21.90
  -2   0   0  857.31   21.60
  -2   0   0  838.22   25.70
   2   0   0  783.92   21.60
   2   0   0  880.51   21.80
  -3   0   0 1703.13   45.20
  -3   0   0 1609.04   42.60
  -3   0   0 1639.54   39.40
  -4   0   0  173.78   16.10
  -4   0   0  151.48   12.30
  -4   0   0  134.09   14.80
  -5   0   0    8.20    6.80
  -5   0   0    8.90    9.00
  -5   0   0   10.40    9.80
  -6   0   0  493.05   29.10
  -6   0   0  518.65   23.80
  -6   0   0  497.45   30.60
  -7   0   0  511.75   25.50
  -7   0   0  525.15   32.80
  -7   0   0  470.95   33.10
  -8   0   0    1.70   13.90
  -8   0   0   25.20   14.30
  -8   0   0    4.10    9.70
  -9   0   0   56.39   19.70
  -9   0   0   68.39   14.40
  -9   0   0   92.89   19.90
 -10   0   0  268.47   35.40
 -10   0   0  274.57   30.60
 -11   0   0   36.90   21.80
 -11   0   0   36.00   20.90
 -11   1   0  161.28   27.20
 -11   1   0  180.68   30.90
 -10   1   0    5.00   13.90
 -10   1   0    0.80   16.20
 -10   1   0   -3.30   11.10
  -9   1   0  283.67   31.10
  -9   1   0  329.77   33.90
  -9   1   0  321.47   25.10
  -8   1   0  430.06   26.30
  -8   1   0  432.86   32.30
  -8   1   0  450.55   33.80
  -7   1   0    2.10    7.50
  -7   1   0   -5.60   11.20
  -7   1   0    0.10    9.70
  -6   1   0  494.25   23.30
  -6   1   0  487.35   29.90
  -6   1   0  491.95   26.90
  -5   1   0 1006.50   33.10
  -5   1   0 1065.29   39.90
   4  -1   0 1397.06   38.00
  -4   1   0 1369.26   42.60
  -4   1   0 1390.46   37.70
   3  -1   0  205.48   13.50
  -3   1   0  202.08   15.70
  -3   1   0  205.08   12.60
   2  -1   0 1373.16   32.40
  -2   1   0 1269.17   29.90
  -2   1   0 1307.37   31.50
   1  -1   0 3366.36   66.59
   1  -1   0 3453.65   65.49
  -1   1   0 3160.88   66.29
  -1   1   0 3323.77   66.29
  -1   1   0 3295.17   65.39
   0  -1   0  486.55   12.90
   0  -1   0  487.85   12.70
   0  -1   0  481.75   11.00
   0  -1   0  479.85   13.50
   0   1   0  480.45   12.50
   0   1   0  467.05   13.20
  -1  -1   0 2226.48   47.90
  -1  -1   0 2189.78   44.70
  -1  -1   0 2297.67   49.10
  -1  -1   0 2176.18   46.10
   1   1   0 2195.68   49.90
   1   1   0 2139.09   49.10
   1   1   0 2230.78   46.60
   1   1   0 2172.38   44.80
  -2  -1   0 2061.69   44.70
  -2  -1   0 2097.99   42.30
  -2  -1   0 2132.49   51.09
  -2  -1   0 2031.30   48.90
   2   1   0 2033.30   46.00
   2   1   0 2051.89   44.30
  -3  -1   0   11.10    7.20
  -3  -1   0   -0.60    8.20
  -3  -1   0   -1.70    5.10
   3   1   0    2.50    6.10
  -4  -1   0  987.40   35.00
  -4  -1   0  974.60   36.70
  -4  -1   0  976.40   29.10
  -5  -1   0 1265.27   43.60
  -5  -1   0 1284.57   46.60
  -5  -1   0 1308.67   37.70
  -6  -1   0  126.49   15.30
  -6  -1   0  152.98   21.60
  -6  -1   0  146.69   20.60
  -7  -1   0  134.89   17.30
  -7  -1   0  131.19   21.80
  -7  -1   0   94.59   18.10
  -8  -1   0  317.07   23.10
  -8  -1   0  282.57   29.60
  -8  -1   0  403.46   35.40
  -9  -1   0  190.38   31.20
  -9  -1   0  162.78   26.10
 -10  -1   0    8.70   19.00
 -10  -1   0    5.30   15.50
 -11  -1   0  180.78   30.80
 -11  -1   0  220.78   37.80
 -11   2   0  175.28   29.10
 -11   2   0  178.08   31.10
 -10   2   0  339.37   35.50
 -10   2   0  354.06   34.50
 -10   2   0  352.76   28.30
  -9   2   0   34.10   11.60
  -9   2   0   45.30   17.50
  -9   2   0   25.80   14.10
  -8   2   0  364.56   29.10
  -8   2   0  337.97   20.10
  -8   2   0  330.37   23.20
  -8   2   0  371.76   31.90
  -7   2   0  709.83   38.30
  -7   2   0  713.83   26.70
  -7   2   0  703.43   31.10
  -6   2   0  221.98   17.40
  -6   2   0  245.68   15.20
  -6   2   0  208.18   20.60
   5  -2   0   95.69   13.90
  -5   2   0   89.19   10.60
  -5   2   0  104.49   16.60
  -5   2   0  112.89   13.50
   4  -2   0 1361.16   38.60
  -4   2   0 1319.07   37.40
  -4   2   0 1360.26   34.40
   3  -2   0  782.62   25.60
  -3   2   0  729.93   22.00
  -3   2   0  771.02   25.30
   2  -2   0  527.25   18.80
  -2   2   0  519.95   15.80
  -2   2   0  499.45   17.00
   1  -2   0 1825.92   41.60
   1  -2   0 1805.42   42.30
   1  -2   0 1892.81   36.30
   1  -2   0 1846.12   40.90
  -1   2   0 1809.42   41.20
  -1   2   0 1867.41   36.40
  -1   2   0 1808.52   40.80
   0  -2   0  606.84   18.50
   0  -2   0  578.64   15.10
   0  -2   0  584.34   19.70
   0   2   0  553.54   19.10
   0   2   0  577.54   16.60
   0   2   0  592.14   15.20
  -1  -2   0  230.98   10.50
  -1  -2   0  231.88   15.90
  -1  -2   0  235.68   13.40
   1   2   0  242.18   13.70
   1   2   0  229.58   11.00
  -2  -2   0 1101.49   32.90
  -2  -2   0 1072.69   27.00
  -2  -2   0 1078.99   34.00
   2   2   0 1067.39   30.10
  -3  -2   0 2243.68   51.59
  -3  -2   0 2307.57   46.70
  -3  -2   0 2351.86   60.99
  -3  -2   0 2259.07   58.59
   3   2   0 2208.38   54.39
  -4  -2   0  391.66   25.00
  -4  -2   0  301.47   21.60
  -4  -2   0  353.66   17.40
   4   2   0  327.57   18.40
  -5  -2   0  208.78   20.90
  -5  -2   0  182.58   15.30
  -5  -2   0  185.98   22.20
  -6  -2   0  832.72   39.50
  -6  -2   0  841.22   31.50
  -6  -2   0  836.82   42.20
  -7  -2   0  249.38   21.20
  -7  -2   0  249.38   29.00
  -7  -2   0  158.78   24.50
  -8  -2   0   23.80   16.40
  -8  -2   0   25.80   15.40
  -9  -2   0  389.26   36.80
  -9  -2   0  318.87   36.80
 -10  -2   0  145.29   27.10
 -10  -2   0  174.18   30.80
 -11   3   0   40.80   15.80
 -11   3   0    9.40   16.10
 -11   3   0   17.50   18.30
 -10   3   0  122.59   22.80
 -10   3   0  162.98   22.70
 -10   3   0  140.29   25.50
  -9   3   0  474.65   36.80
  -9   3   0  395.56   27.90
  -8   3   0   96.99   19.30
  -8   3   0   92.09   13.90
  -8   3   0  100.29   15.70
  -7   3   0  393.26   20.20
  -7   3   0  406.66   30.00
  -7   3   0  369.06   24.30
  -6   3   0 1757.92   58.39
  -6   3   0 1823.92   47.40
  -6   3   0 1816.32   53.19
   5  -3   0  919.61   33.40
  -5   3   0  930.41   33.10
  -5   3   0  889.71   28.40
   4  -3   0   10.00    8.50
  -4   3   0   20.80    8.20
  -4   3   0   14.50    6.30
   3  -3   0 1279.97   36.20
  -3   3   0 1257.57   33.60
   2  -3   0 1063.19   30.70
   2  -3   0 1036.90   30.70
  -2   3   0 1064.59   24.20
  -2   3   0 1058.39   29.50
   1  -3   0  483.95   20.30
   1  -3   0  466.05   17.50
   1  -3   0  504.85   13.00
   1  -3   0  518.45   19.50
  -1   3   0  488.45   19.40
  -1   3   0  503.85   12.50
   0  -3   0   14.80    6.60
   0  -3   0    9.80    4.80
   0  -3   0    7.80    5.00
   0  -3   0   12.80    8.50
   0   3   0   10.80    8.00
   0   3   0    8.90    4.70
  -1  -3   0  301.67   16.40
  -1  -3   0  310.57    8.90
  -1  -3   0  305.37   12.60
  -1  -3   0  316.77   19.20
   1   3   0  301.67   16.80
   1   3   0  306.37    9.00
  -2  -3   0  297.67   18.90
  -2  -3   0  321.37   20.60
  -2  -3   0  275.87   13.10
   2   3   0  271.77   17.00
  -3  -3   0  487.65   24.00
  -3  -3   0  490.15   26.80
  -3  -3   0  448.16   17.70
   3   3   0  482.05   22.20
  -4  -3   0 1375.06   37.10
  -4  -3   0 1400.46   46.60
  -4  -3   0 1400.26   48.70
   4   3   0 1312.87   41.50
  -5  -3   0  515.05   31.50
  -5  -3   0  580.74   23.60
  -5  -3   0  568.44   31.90
   5   3   0  578.84   26.80
  -6  -3   0   -6.80   12.90
  -6  -3   0   -3.60    8.10
  -6  -3   0  -15.80   10.40
  -7  -3   0  410.56   35.60
  -7  -3   0  400.66   32.80
  -8  -3   0  377.16   34.60
  -8  -3   0  373.26   37.50
  -9  -3   0   10.60   14.60
  -9  -3   0   -5.40   17.10
 -10  -3   0   84.99   23.10
 -10  -3   0   43.80   22.60
 -12   4   0   66.89   24.90
 -12   4   0   85.09   22.90
 -12   4   0   85.49   21.30
 -11   4   0  257.67   37.10
 -11   4   0  278.27   29.90
 -11   4   0  304.57   33.00
 -10   4   0  104.69   23.30
 -10   4   0   78.49   16.90
  -9   4   0   -5.00   10.00
  -9   4   0   12.70   14.80
  -8   4   0  559.94   25.40
  -8   4   0  514.65   31.30
  -8   4   0  555.54   37.30
  -7   4   0 1083.09   41.70
  -7   4   0 1005.00   34.20
   6  -4   0   60.49   13.10
  -6   4   0   65.09   11.30
  -6   4   0   60.29   12.90
   5  -4   0 1001.40   35.80
  -5   4   0 1013.30   32.00
  -5   4   0  978.40   35.60
   4  -4   0  838.02   31.30
  -4   4   0  782.72   27.10
   3  -4   0   75.39   11.60
   3  -4   0   90.19   14.70
  -3   4   0   78.49    8.30
  -3   4   0  106.49   12.10
   2  -4   0 1652.23   43.90
   2  -4   0 1649.93   43.20
   2  -4   0 1635.74   33.70
  -2   4   0 1584.74   43.00
  -2   4   0 1679.33   33.80
   1  -4   0 1984.40   49.30
   1  -4   0 1916.71   46.70
   1  -4   0 2072.69   52.79
   1  -4   0 2012.80   41.60
  -1   4   0 1936.31   49.90
   0  -4   0  557.64   18.80
   0  -4   0  539.15   22.30
   0  -4   0  535.45   17.40
   0  -4   0  558.34   25.50
  -1  -4   0    6.90    7.70
  -1  -4   0    8.90    9.80
   1   4   0   -3.10    8.10
   1   4   0   -1.00    3.50
  -2  -4   0  672.33   21.60
  -2  -4   0  665.83   31.10
  -2  -4   0  667.23   28.60
   2   4   0  707.23   28.00
  -3  -4   0  627.94   31.80
  -3  -4   0  620.94   21.60
  -3  -4   0  629.54   30.40
   3   4   0  609.44   27.30
  -4  -4   0   28.70   12.90
  -4  -4   0   17.90   10.70
  -4  -4   0   29.30    7.50
   4   4   0   18.90   10.50
  -5  -4   0  566.94   34.00
  -5  -4   0  617.34   24.20
  -5  -4   0  640.64   37.70
   5   4   0  616.34   30.70
  -6  -4   0  486.85   33.80
  -6  -4   0  452.05   35.50
   6   4   0  404.16   27.80
  -7  -4   0   48.00   20.00
  -7  -4   0   53.99   17.70
  -8  -4   0   70.89   20.80
  -8  -4   0   88.99   23.30
  -9  -4   0  190.38   34.80
  -9  -4   0  186.28   32.80
 -12   5   0   52.39   19.30
 -12   5   0   57.89   19.20
 -12   5   0   28.90   22.50
 -11   5   0   37.30   16.90
 -11   5   0    8.00   13.50
 -10   5   0  171.38   29.00
 -10   5   0  156.88   24.60
  -9   5   0  154.58   23.20
  -9   5   0  169.38   27.90
  -8   5   0   75.79   16.50
  -8   5   0   68.79   11.60
  -7   5   0  276.27   24.10
  -7   5   0  270.27   18.60
   6  -5   0 1425.36   48.10
  -6   5   0 1480.95   49.10
  -6   5   0 1376.76   42.70
   5  -5   0  307.57   22.30
  -5   5   0  359.46   19.50
  -5   5   0  383.86   24.10
   4  -5   0  598.74   27.60
  -4   5   0  565.94   24.40
   3  -5   0 1704.23   48.00
   3  -5   0 1729.03   49.00
  -3   5   0 1761.22   37.60
  -3   5   0 1775.82   48.40
   2  -5   0  592.94   26.40
   2  -5   0  685.93   25.40
   2  -5   0  735.53   30.50
  -2   5   0  694.53   27.80
   1  -5   0  126.99   12.00
   1  -5   0   99.89   17.40
   1  -5   0  124.49   15.00
   1  -5   0  123.79    8.60
  -1   5   0  143.69   14.80
   0  -5   0 1191.18   40.90
   0  -5   0 1163.18   37.30
   0  -5   0 1185.98   30.60
   0  -5   0 1174.28   32.30
   0   5   0 1162.98   38.00
  -1  -5   0  579.34   29.60
  -1  -5   0  560.94   23.10
  -1  -5   0  559.94   26.50
   1   5   0  543.65   16.20
   1   5   0  603.44   27.20
  -2  -5   0   -3.20   10.40
  -2  -5   0   -1.80    8.90
   2   5   0   11.00   10.00
  -3  -5   0  428.96   18.30
  -3  -5   0  412.16   29.50
  -3  -5   0  456.75   27.80
   3   5   0  399.86   24.90
  -4  -5   0  593.14   36.80
  -4  -5   0  565.64   22.40
  -4  -5   0  596.74   33.90
   4   5   0  647.34   31.90
  -5  -5   0  193.08   27.20
  -5  -5   0  146.39   23.80
   5   5   0  153.98   22.10
  -6  -5   0  161.28   28.50
  -6  -5   0  173.08   26.20
   6   5   0  195.68   23.70
  -7  -5   0  316.37   33.50
  -7  -5   0  317.97   36.10
  -8  -5   0   57.89   19.70
  -8  -5   0   77.89   24.40
  -9  -5   0  -13.60   18.70
  -9  -5   0   30.30   19.30
  -9  -5   0   46.50   20.60
 -11   6   0  111.19   22.30
 -11   6   0  141.09   27.30
 -10   6   0   17.10   17.20
 -10   6   0   19.10   14.00
  -9   6   0   66.09   16.40
  -9   6   0   99.29   18.10
  -8   6   0  767.12   39.50
  -8   6   0  752.02   32.00
  -7   6   0  306.57   21.20
  -7   6   0  326.47   25.40
   6  -6   0    7.10   11.00
  -6   6   0   12.30    9.80
  -6   6   0   16.20    8.60
   5  -6   0  675.73   31.10
  -5   6   0  647.14   28.40
   4  -6   0  262.87   20.60
   4  -6   0  273.27   21.20
  -4   6   0  277.87   19.70
  -4   6   0  209.98   11.30
   3  -6   0    1.10    9.70
   3  -6   0   11.80    9.00
  -3   6   0   11.00    9.00
   2  -6   0  924.31   35.00
   2  -6   0  927.31   38.20
   2  -6   0  937.41   31.70
  -2   6   0  957.30   35.80
   1  -6   0  917.11   34.60
   1  -6   0  891.31   24.80
   1  -6   0  976.90   38.20
   1  -6   0  906.01   29.10
  -1   6   0  885.61   34.50
   0  -6   0   24.60   12.40
   0  -6   0   19.60   10.60
   0  -6   0   21.80    7.00
   0   6   0   18.20   10.80
  -1  -6   0  644.74   30.40
  -1  -6   0  643.34   26.30
  -1  -6   0  642.64   33.50
   1   6   0  630.54   30.50
  -2  -6   0  917.71   35.20
  -2  -6   0  854.61   37.60
  -2  -6   0  908.91   41.50
   2   6   0  830.42   36.40
  -3  -6   0  131.59   18.60
  -3  -6   0  168.18   21.90
  -3  -6   0  182.38   25.30
   3   6   0  138.29   21.60
  -4  -6   0    7.50   13.90
  -4  -6   0   22.70   14.20
   4   6   0   12.90   13.00
  -5  -6   0  589.24   38.20
  -5  -6   0  606.04   41.60
   5   6   0  583.04   34.80
  -6  -6   0   48.60   17.10
  -6  -6   0   61.59   18.30
  -6  -6   0   44.90   19.70
   6   6   0   75.29   18.30
  -7  -6   0   13.60   16.30
  -7  -6   0   -0.50   18.20
  -7  -6   0   46.60   18.30
  -8  -6   0  138.89   27.60
  -8  -6   0  137.89   29.30
  -8  -6   0  138.99   27.80
 -11   7   0   72.09   20.40
 -11   7   0   53.89   21.00
 -10   7   0  220.48   29.50
 -10   7   0  185.48   31.50
  -9   7   0   92.59   20.60
  -9   7   0  107.89   17.50
  -8   7   0  147.49   18.60
  -8   7   0  176.38   25.00
  -7   7   0  244.98   21.20
  -7   7   0  193.78   24.20
  -6   7   0  319.27   22.90
  -6   7   0  336.17   25.50
   5  -7   0    3.90   10.90
  -5   7   0    7.50    9.70
   4  -7   0  438.36   27.40
   4  -7   0  389.06   25.00
  -4   7   0  406.96   25.20
   3  -7   0 1085.89   38.40
   3  -7   0 1048.40   41.30
  -3   7   0 1155.58   41.70
   2  -7   0   21.10   11.30
   2  -7   0   19.40    9.10
   2  -7   0   23.20   13.00
  -2   7   0   18.40   11.30
   1  -7   0  276.47   25.50
   1  -7   0  288.77   13.90
   1  -7   0  279.67   22.40
  -1   7   0  279.57   21.80
   0  -7   0  444.46   20.90
   0  -7   0  444.76   29.40
   0  -7   0  472.85   28.00
   0   7   0  491.15   27.60
  -1  -7   0  364.56   21.30
  -1  -7   0  354.96   29.60
  -1  -7   0  299.17   25.00
   1   7   0  312.77   25.80
  -2  -7   0   84.39   18.40
  -2  -7   0   87.29   16.40
  -2  -7   0   52.89   12.40
   2   7   0   74.59   16.70
  -3  -7   0  426.16   28.10
  -3  -7   0  422.86   34.80
  -3  -7   0  387.26   30.70
   3   7   0  450.75   31.10
  -4  -7   0  310.97   28.40
  -4  -7   0  426.96   33.20
  -4  -7   0  291.17   33.50
   4   7   0  310.97   29.90
  -5  -7   0   37.60   16.10
  -5  -7   0   34.60   19.40
  -5  -7   0   61.69   18.50
   5   7   0   63.89   17.90
  -6  -7   0  123.29   27.00
  -6  -7   0  128.69   24.10
  -6  -7   0  176.18   29.50
   6   7   0  140.99   23.70
  -7  -7   0  117.99   26.40
  -7  -7   0   82.59   21.80
  -7  -7   0  126.09   28.50
 -11   8   0   33.00   20.50
 -11   8   0   27.30   17.80
 -10   8   0   33.00   16.30
  -9   8   0  348.17   27.00
  -9   8   0  352.56   33.10
  -8   8   0   77.59   17.90
  -8   8   0  120.09   20.50
  -7   8   0    3.70   12.80
  -7   8   0  -10.00    9.50
  -6   8   0  309.77   27.90
  -6   8   0  363.16   26.10
  -5   8   0  418.16   28.00
   4  -8   0   85.99   15.90
   4  -8   0   88.89   16.90
  -4   8   0   83.29   15.80
   3  -8   0  410.06   24.70
   3  -8   0  367.06   28.80
  -3   8   0  420.06   28.70
   2  -8   0  809.32   37.40
   2  -8   0  770.42   39.40
  -2   8   0  845.52   39.00
   1  -8   0  143.49   18.90
   1  -8   0  166.98   22.90
   1  -8   0  173.58   23.10
  -1   8   0  191.28   22.80
   0  -8   0   21.50   15.30
   0  -8   0   27.60   13.20
   0  -8   0   27.50    8.20
   0   8   0   20.20   13.70
  -1  -8   0  496.85   36.10
  -1  -8   0  425.06   25.00
  -1  -8   0  436.06   30.60
   1   8   0  403.26   30.30
  -2  -8   0  171.98   26.30
  -2  -8   0  182.08   20.30
  -2  -8   0  204.68   26.40
   2   8   0  192.38   25.50
  -3  -8   0    1.80   10.40
  -3  -8   0    4.30   14.00
  -3  -8   0   -4.20   14.50
   3   8   0    7.30   13.60
  -4  -8   0  208.28   29.80
  -4  -8   0  141.09   22.70
  -4  -8   0  170.98   28.00
   4   8   0  218.98   28.40
  -5  -8   0  156.98   26.70
  -5  -8   0  148.49   25.20
  -5  -8   0  171.88   31.60
   5   8   0  172.88   27.80
  -6  -8   0   18.20   20.40
  -6  -8   0   10.40   17.40
  -6  -8   0    6.00   15.60
   6   8   0   61.49   19.90
 -11   9   0   29.60   20.50
 -10   9   0   82.99   21.90
  -9   9   0   10.30   12.30
  -9   9   0   14.80   16.10
  -8   9   0  134.69   20.80
  -8   9   0  148.39   24.20
  -7   9   0  245.68   25.20
  -7   9   0  284.67   29.90
  -6   9   0   -5.20   11.60
  -6   9   0   21.60   13.10
   5  -9   0  133.49   23.40
  -5   9   0  191.28   24.40
   4  -9   0  399.66   30.10
  -4   9   0  446.26   31.40
   3  -9   0  241.38   27.70
  -3   9   0  226.48   25.40
   2  -9   0   18.30   13.80
   2  -9   0   -2.60   14.10
  -2   9   0   -3.00   10.60
   1  -9   0  329.87   29.40
   1  -9   0  348.87   33.00
  -1   9   0  334.87   29.60
   0  -9   0  251.67   29.20
   0  -9   0  327.27   30.60
   0   9   0  269.57   26.30
  -1  -9   0   15.30   14.70
  -1  -9   0   21.50   16.50
   1   9   0    2.90   14.60
  -2  -9   0  150.38   26.80
  -2  -9   0  157.78   24.20
   2   9   0  159.88   27.20
  -3  -9   0  182.98   29.20
  -3  -9   0  223.78   34.00
   3   9   0  166.18   27.50
  -4  -9   0    6.90   17.30
  -4  -9   0   10.60   19.10
   4   9   0   20.70   17.90
  -5  -9   0   26.80   19.80
  -5  -9   0   15.10   18.70
   5   9   0   34.40   19.00
 -10  10   0   31.90   18.90
  -9  10   0  199.18   31.40
  -9  10   0  161.98   24.70
  -8  10   0   19.70   15.30
  -8  10   0   51.39   19.40
  -7  10   0   28.80   16.00
  -7  10   0   59.09   19.00
  -6  10   0  272.67   28.60
  -6  10   0  246.68   29.10
   5 -10   0   55.19   17.30
  -5  10   0   60.39   17.60
   4 -10   0   10.60   13.10
  -4  10   0    9.40   13.80
   3 -10   0  120.49   21.40
  -3  10   0  109.69   21.30
   2 -10   0  159.88   26.40
   2 -10   0  113.09   21.20
  -2  10   0  140.29   23.40
   1 -10   0   12.50   14.50
   1 -10   0  -10.80   14.30
  -1  10   0   -8.20   13.70
   0 -10   0   95.59   23.30
   0 -10   0   82.09   19.70
   0  10   0   99.39   21.90
  -1 -10   0  167.58   25.30
  -1 -10   0  145.09   27.30
   1  10   0   99.59   21.70
  -2 -10   0   24.10   18.30
  -2 -10   0   27.00   16.80
   2  10   0  -20.20   13.90
  -3 -10   0   78.19   22.00
  -3 -10   0   44.20   23.60
   3  10   0   37.20   19.30
  -4 -10   0  142.79   29.60
  -4 -10   0  142.49   27.60
   4  10   0  108.99   24.40
  -9  11   0    7.40   17.60
  -9  11   0   33.60   15.50
  -8  11   0   79.19   22.60
  -8  11   0  107.89   21.60
  -7  11   0   86.29   21.90
  -7  11   0   74.59   20.10
  -6  11   0    5.50   13.30
  -6  11   0   -3.00   14.00
   5 -11   0   64.59   19.60
  -5  11   0  165.88   27.70
   4 -11   0   87.79   20.10
  -4  11   0   62.89   19.40
   3 -11   0   11.30   16.20
  -3  11   0   23.60   17.80
   2 -11   0   51.09   19.60
   2 -11   0   98.99   24.10
  -2  11   0   83.49   20.90
   1 -11   0  292.57   35.60
   1 -11   0  257.57   32.30
  -1  11   0  251.77   32.00
   0 -11   0   48.50   22.40
   0 -11   0   48.90   19.70
   0  11   0  106.09   23.60
  -1 -11   0   10.20   19.00
  -1 -11   0   20.80   18.40
   1  11   0   15.00   17.90
  -2 -11   0   36.00   20.90
  -2 -11   0  125.99   29.20
   2  11   0  100.99   23.40
  -3 -11   0   73.09   22.00
  -3 -11   0   17.40   18.80
   3  11   0   59.19   23.00
  -8  12   0   -4.30   14.40
  -8  12   0  -16.60   14.50
  -7  12   0   30.30   18.80
  -7  12   0   83.89   20.40
  -6  12   0   90.19   21.00
  -6  12   0  109.69   23.30
   5 -12   0   25.30   17.40
  -5  12   0   -6.70   17.30
   4 -12   0    2.70   15.60
  -4  12   0   13.00   17.30
   3 -12   0   98.69   23.40
  -3  12   0  108.69   24.60
   2 -12   0   31.00   20.10
   2 -12   0   88.89   25.40
  -2  12   0   30.20   20.40
   1 -12   0   -9.50   19.00
   1 -12   0    5.90   17.00
  -1  12   0  -16.90   15.70
   0 -12   0   45.90   22.70
   0 -12   0   77.89   25.00
   0  12   0   39.00   20.90
  -1 -12   0    5.80   20.40
  -1 -12   0   22.60   20.60
   1  12   0   37.50   21.90
  -7  13   0   23.30   20.00
  -7  13   0   53.49   20.10
  -6  13   0    4.20   15.10
  -6  13   0  -13.30   17.50
  -5  13   0   54.79   16.60
  -5  13   0   13.40   18.10
  -4  13   0   27.80   19.90
  -3  13   0   64.49   22.10
   2 -13   0   21.50   23.60
  -2  13   0   68.39   24.30
   1 -13   0   59.59   24.70
  -1  13   0   31.40   21.80
  -1  13  -1   32.50   21.20
   1 -13   1  -26.80   19.20
   1 -13   1   -1.00   18.70
  -2  13  -1   82.89   23.80
   2 -13   1   21.70   21.40
  -3  13  -1  110.09   25.80
   3 -13   1  117.29   27.50
  -4  13  -1   -8.90   16.90
  -4  13  -1   20.90   15.50
   4 -13   1   15.80   18.50
  -5  13  -1   16.50   17.90
  -5  13  -1   25.20   16.20
   5 -13   1   55.59   32.10
  -6  13  -1   62.39   23.20
  -6  13  -1   58.19   19.70
   1  12  -1   -3.90   16.80
  -1 -12   1  -14.70   17.30
  -1 -12   1  -29.60   16.70
   0  12  -1   74.39   21.80
   0 -12   1   96.39   23.90
   0 -12   1   90.99   25.50
  -1  12  -1  206.88   34.00
   1 -12   1  196.68   32.60
   1 -12   1  238.98   37.00
  -2  12  -1   20.30   18.90
   2 -12   1    7.40   18.50
   2 -12   1   22.20   21.10
  -3  12  -1   24.50   18.60
   3 -12   1   32.70   19.50
  -4  12  -1   84.79   21.90
  -4  12  -1  151.08   23.10
   4 -12   1   94.69   23.10
  -5  12  -1   20.10   16.00
  -5  12  -1    3.60   17.50
   5 -12   1   15.30   17.60
  -6  12  -1   18.30   14.40
  -6  12  -1  -10.20   15.30
  -7  12  -1   83.69   21.80
  -7  12  -1   96.79   22.70
  -8  12  -1   24.30   18.90
  -8  12  -1   22.10   17.70
   3  11  -1   10.70   18.80
  -3 -11   1  -12.40   16.90
  -3 -11   1   10.50   18.50
   2  11  -1   53.79   20.70
  -2 -11   1   53.49   23.00
  -2 -11   1   86.09   23.30
   1  11  -1  188.08   32.10
  -1 -11   1  145.39   28.30
  -1 -11   1  125.09   24.90
   0  11  -1    3.00   16.80
   0 -11   1   45.20   21.00
   0 -11   1   27.80   18.30
  -1  11  -1  104.09   24.00
   1 -11   1   72.89   22.30
   1 -11   1   82.89   21.30
  -2  11  -1  198.28   30.10
   2 -11   1  201.28   31.10
   2 -11   1  215.08   34.00
  -3  11  -1   89.89   20.90
   3 -11   1  108.89   22.60
  -4  11  -1   10.80   14.40
   4 -11   1   -1.50   14.80
  -5  11  -1  148.59   24.80
  -5  11  -1  172.48   28.40
   5 -11   1   99.29   22.50
  -6  11  -1   83.29   19.10
  -6  11  -1   79.69   20.00
  -7  11  -1   15.20   14.10
  -7  11  -1    1.00   14.20
  -8  11  -1   91.09   21.20
  -8  11  -1   94.89   22.60
  -9  11  -1  107.59   25.20
   4  10  -1   83.89   22.60
  -4 -10   1   37.40   20.60
  -4 -10   1   29.00   22.30
   3  10  -1  102.99   23.90
  -3 -10   1  134.99   28.00
  -3 -10   1   86.39   23.80
   2  10  -1   64.29   20.00
  -2 -10   1   79.19   21.80
  -2 -10   1   86.59   21.80
   1  10  -1   16.10   16.90
  -1 -10   1   39.40   18.20
  -1 -10   1   22.20   18.10
   0  10  -1  194.48   29.00
   0 -10   1  208.88   32.40
   0 -10   1  217.18   29.30
  -1  10  -1   31.90   16.50
   1 -10   1   67.59   19.30
   1 -10   1   83.49   21.40
  -2  10  -1   28.50   15.90
   2 -10   1   26.40   18.20
   2 -10   1   21.50   16.50
  -3  10  -1  206.68   27.40
   3 -10   1  217.28   30.40
  -4  10  -1  251.77   28.10
   4 -10   1  246.38   28.30
  -5  10  -1    3.70   13.50
  -5  10  -1    9.00   12.50
   5 -10   1    9.90   14.80
  -6  10  -1  146.59   24.00
  -6  10  -1  160.08   25.80
  -7  10  -1  197.38   25.90
  -7  10  -1  230.18   30.00
  -8  10  -1   44.40   15.40
  -8  10  -1   15.10   16.70
  -9  10  -1   95.69   21.90
 -10  10  -1  196.18   30.60
   5   9  -1   73.49   21.60
  -5  -9   1  171.08   28.10
  -5  -9   1  199.68   34.30
  -5  -9   1  132.79   27.60
   4   9  -1   67.19   19.80
  -4  -9   1   55.19   20.30
  -4  -9   1   55.19   21.90
  -4  -9   1   48.80   16.00
   3   9  -1   27.30   16.30
  -3  -9   1   11.70   13.60
  -3  -9   1   -3.10   14.20
  -3  -9   1   28.00   18.20
   2   9  -1  217.18   28.70
  -2  -9   1  168.18   31.10
  -2  -9   1  173.08   27.40
   1   9  -1  161.48   25.80
  -1  -9   1  122.29   21.30
  -1  -9   1  148.49   25.30
   0   9  -1   16.20   15.30
   0  -9   1   13.50   14.50
   0  -9   1    3.80   13.90
  -1   9  -1  332.67   29.40
   1  -9   1  367.96   32.50
   1  -9   1  350.76   32.10
  -2   9  -1  148.59   23.60
   2  -9   1  235.48   29.20
   2  -9   1  218.58   27.30
  -3   9  -1   -4.90   12.60
   3  -9   1  -12.80   12.70
  -4   9  -1  207.08   24.80
   4  -9   1  189.28   27.20
  -5   9  -1  308.27   28.40
  -5   9  -1  289.97   26.70
   5  -9   1  321.77   32.20
  -6   9  -1  127.29   21.00
  -6   9  -1  129.79   20.80
  -7   9  -1   60.99   16.50
  -7   9  -1   92.29   20.30
  -8   9  -1  141.89   23.70
  -8   9  -1  166.38   23.20
  -9   9  -1   99.49   22.30
 -10   9  -1   23.60   17.30
 -11   9  -1  125.19   26.80
 -11   9  -1   83.39   24.90
   6   8  -1    8.70   16.60
  -6  -8   1   40.00   19.60
  -6  -8   1   26.50   15.70
  -6  -8   1    8.00   16.40
   5   8  -1   11.40   15.30
  -5  -8   1    5.60   14.00
  -5  -8   1    5.90   17.10
  -5  -8   1   18.10   15.80
   4   8  -1  285.87   32.20
  -4  -8   1  236.68   27.60
  -4  -8   1  323.97   33.10
  -4  -8   1  239.88   32.60
   3   8  -1  152.58   25.60
  -3  -8   1  148.99   26.10
  -3  -8   1  156.68   25.40
  -3  -8   1  204.68   23.60
   2   8  -1    8.40   14.00
  -2  -8   1   16.60   16.00
  -2  -8   1   -4.40    9.10
  -2  -8   1  -11.60   12.90
   1   8  -1  332.77   29.30
  -1  -8   1  456.95   24.90
  -1  -8   1  370.76   30.30
  -1  -8   1  458.05   34.20
   0   8  -1  238.78   24.80
   0  -8   1  294.47   26.90
   0  -8   1  260.97   18.00
   0  -8   1  289.97   26.80
  -1   8  -1   14.00   12.90
   1  -8   1   26.60   13.30
   1  -8   1   28.80   13.50
   1  -8   1   19.90    7.00
  -2   8  -1   86.49   15.50
   2  -8   1  123.19   19.20
   2  -8   1  105.99   19.30
  -3   8  -1  511.85   30.40
   3  -8   1  461.85   31.40
  -4   8  -1  113.89   19.50
   4  -8   1  124.99   22.10
  -5   8  -1   19.80   11.50
  -5   8  -1   18.30   11.70
  -6   8  -1  364.96   25.40
  -6   8  -1  357.16   27.40
  -7   8  -1  179.68   23.40
  -7   8  -1  206.88   21.10
  -8   8  -1   45.10   15.20
  -8   8  -1   49.30   13.20
  -9   8  -1  263.57   28.90
 -10   8  -1  192.18   28.00
 -11   8  -1    8.10   16.10
 -11   8  -1   35.70   19.40
   7   7  -1   -8.30   13.30
  -7  -7   1    8.00   15.30
  -7  -7   1  -11.80   15.90
  -7  -7   1   20.60   19.60
   6   7  -1  189.18   27.50
  -6  -7   1  152.98   25.70
  -6  -7   1  244.68   36.00
  -6  -7   1  154.98   27.20
   5   7  -1  410.76   33.20
  -5  -7   1  374.56   34.50
  -5  -7   1  386.56   37.70
  -5  -7   1  408.56   33.30
   4   7  -1    2.80   13.00
  -4  -7   1   17.60   12.50
  -4  -7   1   -9.10   12.20
  -4  -7   1    5.90   14.00
   3   7  -1  197.98   24.80
  -3  -7   1  296.57   25.20
  -3  -7   1  304.37   28.20
  -3  -7   1  281.87   29.60
   2   7  -1  632.74   33.60
  -2  -7   1  712.83   32.70
  -2  -7   1  622.74   35.20
  -2  -7   1  619.24   37.20
   1   7  -1   18.30   12.00
  -1  -7   1   26.60   13.50
  -1  -7   1   17.40   12.30
  -1  -7   1   15.60    8.40
   0   7  -1  166.28   21.00
   0  -7   1  136.89   13.80
   0  -7   1  120.69   19.90
   0  -7   1  143.19   21.50
  -1   7  -1  700.93   31.70
   1  -7   1  636.64   31.90
   1  -7   1  670.83   23.10
   1  -7   1  681.63   35.20
  -2   7  -1  101.99   15.80
   2  -7   1   88.09   10.50
   2  -7   1  117.09   18.20
   2  -7   1   80.89   15.80
  -3   7  -1  314.77   23.00
  -3   7  -1  269.87   10.90
   3  -7   1  267.67   10.90
   3  -7   1  268.27   24.20
  -4   7  -1  341.07   23.50
   4  -7   1  393.06   27.00
  -5   7  -1  304.97   22.10
  -5   7  -1  298.97   24.60
  -6   7  -1    9.00    9.30
  -6   7  -1    1.30    9.60
  -7   7  -1  149.49   23.00
  -7   7  -1  158.18   18.90
  -8   7  -1  550.14   36.50
  -8   7  -1  620.04   30.60
  -9   7  -1   38.90   16.20
 -10   7  -1   49.40   21.00
 -10   7  -1   48.30   18.40
 -11   7  -1  123.69   28.90
 -11   7  -1  147.99   25.30
  -8  -6   1  135.19   27.50
  -8  -6   1   95.59   23.90
  -8  -6   1   72.19   24.60
  -7  -6   1  173.38   29.40
  -7  -6   1  144.29   25.20
  -7  -6   1  196.88   31.70
   6   6  -1   19.20   14.40
  -6  -6   1   23.00   16.00
  -6  -6   1   17.00   15.60
  -6  -6   1    8.40   17.20
   5   6  -1  255.77   26.60
  -5  -6   1  215.58   26.10
  -5  -6   1  258.27   30.20
  -5  -6   1  235.28   28.30
   4   6  -1  347.37   28.10
  -4  -6   1  402.16   33.00
  -4  -6   1  348.47   27.30
  -4  -6   1  337.77   29.00
   3   6  -1  231.78   23.30
  -3  -6   1  197.28   23.70
  -3  -6   1  242.18   26.30
  -3  -6   1  195.98   21.20
   2   6  -1  106.99   17.10
  -2  -6   1  146.29   17.50
  -2  -6   1  140.29   21.00
  -2  -6   1   87.19   15.30
   1   6  -1  827.22   34.60
  -1  -6   1  760.02   29.70
  -1  -6   1  783.02   35.60
  -1  -6   1  789.62   33.50
   0   6  -1  573.04   28.40
   0  -6   1  551.94   28.70
   0  -6   1  553.34   28.30
   0  -6   1  557.14   22.30
  -1   6  -1   33.60   11.20
   1  -6   1   29.80    6.70
   1  -6   1   40.40   11.50
   1  -6   1   27.90   11.80
  -2   6  -1 1391.76   45.10
  -2   6  -1 1518.35   36.70
   2  -6   1 1466.15   46.90
   2  -6   1 1462.85   35.50
   2  -6   1 1505.85   48.70
  -3   6  -1 1352.86   43.20
  -3   6  -1 1329.97   37.00
   3  -6   1 1375.56   32.00
   3  -6   1 1318.47   45.50
  -4   6  -1    7.00    9.80
  -4   6  -1   12.60    8.90
   4  -6   1   18.50   11.20
  -5   6  -1  651.83   31.00
  -5   6  -1  641.14   27.80
  -6   6  -1  392.06   27.10
  -6   6  -1  370.06   21.70
  -7   6  -1  -11.30   10.40
  -7   6  -1   21.60    9.40
  -8   6  -1  217.98   25.50
  -8   6  -1  216.78   18.60
  -9   6  -1  275.37   33.30
  -9   6  -1  300.87   29.80
 -10   6  -1   57.79   21.10
 -10   6  -1   83.19   19.20
 -11   6  -1    5.20   14.00
 -11   6  -1   19.80   19.40
  -9  -5   1  134.49   28.60
  -9  -5   1  113.19   26.60
  -9  -5   1  176.48   30.30
  -8  -5   1   25.90   16.90
  -8  -5   1  -12.30   15.70
  -8  -5   1   23.70   16.80
  -7  -5   1  155.48   27.10
  -7  -5   1   81.99   22.10
  -7  -5   1  107.79   21.90
   6   5  -1  378.56   29.80
  -6  -5   1  311.47   31.90
  -6  -5   1  375.36   32.90
  -6  -5   1  386.16   32.90
   5   5  -1   80.59   16.50
  -5  -5   1   92.19   18.20
  -5  -5   1   80.79   19.50
  -5  -5   1   74.99   17.00
   4   5  -1  172.18   20.30
  -4  -5   1  130.99   21.30
  -4  -5   1  136.59   11.00
  -4  -5   1  124.69   19.50
  -4  -5   1  102.09   18.80
   3   5  -1  785.42   34.30
  -3  -5   1  821.42   37.80
  -3  -5   1  807.12   34.70
  -3  -5   1  848.62   36.70
   2   5  -1  921.81   35.50
  -2  -5   1  943.01   36.00
  -2  -5   1  879.41   37.10
  -2  -5   1  878.81   33.50
   1   5  -1   15.80    4.30
   1   5  -1    7.90    9.60
  -1  -5   1   20.60    7.60
  -1  -5   1   25.90    9.30
  -1  -5   1    7.80   10.30
   0   5  -1 1033.70   35.60
   0  -5   1 1018.80   30.40
   0  -5   1 1047.20   36.10
   0  -5   1 1051.39   36.90
  -1   5  -1 1551.44   45.70
   1  -5   1 1591.94   38.20
   1  -5   1 1561.64   48.00
   1  -5   1 1693.93   46.90
  -2   5  -1  242.88   10.90
  -2   5  -1  236.78   16.80
   2  -5   1  264.47   20.10
   2  -5   1  273.67   12.30
  -3   5  -1  302.87   18.60
   3  -5   1  315.07   13.10
   3  -5   1  335.87   22.80
  -4   5  -1 1389.96   43.80
  -4   5  -1 1293.87   39.20
  -5   5  -1   66.39   12.00
  -5   5  -1   74.29   12.00
  -6   5  -1  501.85   22.90
  -6   5  -1  561.84   30.00
  -7   5  -1  629.04   33.00
  -7   5  -1  623.34   25.80
  -8   5  -1  175.88   27.00
  -8   5  -1  143.09   15.20
  -8   5  -1  131.39   22.60
  -9   5  -1   33.30   14.60
  -9   5  -1   26.10   17.70
 -10   5  -1  202.48   26.60
 -10   5  -1  160.88   27.30
 -11   5  -1  136.39   23.50
 -11   5  -1  124.39   26.40
  -9  -4   1   57.39   21.30
  -9  -4   1   64.49   22.60
  -9  -4   1   47.70   21.70
  -8  -4   1  281.37   33.80
  -8  -4   1  298.97   33.60
  -8  -4   1  292.67   35.10
  -7  -4   1  151.88   26.50
  -7  -4   1  131.79   24.40
  -6  -4   1   47.70   16.80
  -6  -4   1   16.50   12.10
   5   4  -1  728.53   34.00
  -5  -4   1  773.12   39.00
  -5  -4   1  779.52   24.50
  -5  -4   1  747.53   38.20
   4   4  -1  452.95   25.60
  -4  -4   1  474.55   29.10
  -4  -4   1  440.96   28.60
  -4  -4   1  453.25   16.90
   3   4  -1   -5.20    7.80
  -3  -4   1   14.50    9.60
  -3  -4   1    6.30    4.80
  -3  -4   1   10.50    9.00
   2   4  -1 1508.35   44.20
  -2  -4   1 1492.45   46.50
  -2  -4   1 1377.36   43.00
  -2  -4   1 1487.25   44.90
   1   4  -1 1477.55   42.40
   1   4  -1 1502.35   32.00
  -1  -4   1 1438.56   40.50
  -1  -4   1 1487.15   43.30
  -1  -4   1 1441.16   43.90
   0   4  -1  319.87   17.60
   0  -4   1  281.17   18.00
   0  -4   1  325.97   15.10
   0  -4   1  324.27   19.20
  -1   4  -1  832.62   28.60
  -1   4  -1  859.61   22.70
   1  -4   1  830.32   29.50
   1  -4   1  866.61   23.30
   1  -4   1  849.52   29.50
  -2   4  -1 3166.68   66.89
  -2   4  -1 3261.07   72.89
   2  -4   1 3152.78   75.09
   2  -4   1 3321.77   66.89
  -3   4  -1 1746.53   44.90
  -3   4  -1 1758.92   48.00
   3  -4   1 1771.92   49.60
   3  -4   1 1805.52   42.10
  -4   4  -1    9.30    6.40
  -4   4  -1    4.30    8.20
  -5   4  -1 1145.69   33.60
  -5   4  -1 1157.38   39.80
  -6   4  -1  523.45   21.90
  -6   4  -1  536.65   27.70
  -7   4  -1   -6.30    6.00
  -7   4  -1   -4.00   10.60
  -7   4  -1   12.20   11.90
  -8   4  -1  337.37   27.30
  -8   4  -1  353.36   19.70
  -8   4  -1  409.16   34.30
  -9   4  -1  202.88   24.10
  -9   4  -1  217.48   28.00
 -10   4  -1    7.90   11.60
 -10   4  -1   24.40   17.40
 -11   4  -1   86.09   19.80
 -11   4  -1   66.99   20.70
 -11   4  -1  100.89   26.20
 -10  -3   1  123.89   26.10
 -10  -3   1  152.38   30.00
 -10  -3   1  146.39   28.80
  -9  -3   1   81.89   23.60
  -9  -3   1   86.29   22.00
  -8  -3   1   28.10   15.60
  -8  -3   1   40.40   18.20
  -7  -3   1  530.15   37.40
  -7  -3   1  471.15   34.00
  -6  -3   1  640.94   37.00
  -6  -3   1  583.04   23.80
  -6  -3   1  579.14   33.00
   5   3  -1   -5.40    8.20
  -5  -3   1    2.90   10.50
  -5  -3   1   10.00    6.50
  -5  -3   1    2.40   10.70
   4   3  -1 1329.67   42.90
  -4  -3   1 1427.26   47.20
  -4  -3   1 1434.06   47.90
  -4  -3   1 1420.16   35.00
   3   3  -1 1627.54   46.80
  -3  -3   1 1696.73   50.29
  -3  -3   1 1733.13   38.80
  -3  -3   1 1798.52   50.99
   2   3  -1   23.20    8.10
   2   3  -1   50.99    6.50
  -2  -3   1   44.80   10.50
  -2  -3   1   40.20    9.30
  -2  -3   1   40.40    6.50
   1   3  -1  219.38   10.20
   1   3  -1  219.88    7.70
  -1  -3   1  252.47   16.70
  -1  -3   1  209.68   14.00
  -1  -3   1  216.08   15.90
   0   3  -1   92.69   12.40
   0   3  -1   83.19    8.50
   0  -3   1   92.49    9.30
   0  -3   1   84.89   11.30
   0  -3   1   78.19   11.40
  -1   3  -1  576.34   16.60
  -1   3  -1  585.74   21.00
   1  -3   1  568.94   17.60
   1  -3   1  556.54   22.00
  -2   3  -1   11.30    5.70
  -2   3  -1   10.50    6.40
   2  -3   1    6.40    8.20
   2  -3   1    3.60    5.10
  -3   3  -1  846.52   24.10
  -3   3  -1  753.42   26.70
  -4   3  -1 1887.11   50.79
  -4   3  -1 1888.41   45.00
  -5   3  -1   47.80    7.80
  -5   3  -1   39.90   10.50
  -6   3  -1  845.72   34.50
  -6   3  -1  857.91   39.50
  -6   3  -1  861.41   27.20
  -7   3  -1  720.83   33.70
  -7   3  -1  732.23   25.90
  -7   3  -1  697.43   39.10
  -8   3  -1   25.10   11.80
  -8   3  -1   29.20   16.20
  -8   3  -1   34.40   13.50
  -9   3  -1  145.89   20.90
  -9   3  -1  109.39   23.00
 -10   3  -1  281.27   34.40
 -10   3  -1  189.08   28.80
 -10   3  -1  194.78   25.20
 -11   3  -1   69.19   20.60
 -11   3  -1   91.09   20.30
 -11   3  -1   60.29   21.00
 -10  -2   1  -27.20   15.40
 -10  -2   1   -0.70   15.60
  -9  -2   1  320.77   37.10
  -9  -2   1  314.27   34.00
  -8  -2   1  376.46   34.90
  -8  -2   1  322.67   31.90
  -7  -2   1   -7.10   11.70
  -7  -2   1    2.40    8.70
  -7  -2   1   15.10   13.60
  -6  -2   1  434.56   21.10
  -6  -2   1  411.06   29.40
  -6  -2   1  427.06   29.00
  -5  -2   1 1520.75   49.80
  -5  -2   1 1462.25   50.29
  -5  -2   1 1440.36   39.20
   4   2  -1  237.78   17.70
  -4  -2   1  271.57   13.80
  -4  -2   1  263.17   20.40
  -4  -2   1  249.38   20.10
  -4  -2   1  253.57   12.00
   3   2  -1  510.75   17.40
   3   2  -1  516.55   21.60
  -3  -2   1  482.25   23.40
  -3  -2   1  539.55   16.40
  -3  -2   1  474.95   23.30
  -3  -2   1  504.25   13.40
   2   2  -1 1019.60   29.90
   2   2  -1 1081.59   24.00
  -2  -2   1 1039.00   31.90
  -2  -2   1 1028.20   32.20
  -2  -2   1 1076.29   23.90
   1   2  -1 1319.97   27.70
   1   2  -1 1332.27   34.00
  -1  -2   1 1276.17   34.50
  -1  -2   1 1290.27   34.20
  -1  -2   1 1323.17   33.60
   0   2  -1  342.47   12.80
   0  -2   1  360.36   16.00
   0  -2   1  289.77   14.70
   0  -2   1  364.46   12.90
  -1   2  -1 1716.53   39.00
  -1   2  -1 1757.92   38.50
   1  -2   1 1660.23   41.00
   1  -2   1 1801.72   38.30
  -2   2  -1 2563.24   57.29
  -2   2  -1 2586.74   54.19
   2  -2   1 2582.24   54.49
   2  -2   1 2593.44   55.69
  -3   2  -1    8.60    4.90
  -3   2  -1    9.30    7.10
  -4   2  -1 2026.90   44.40
  -4   2  -1 1847.62   50.19
  -5   2  -1 1863.41   43.40
  -5   2  -1 1821.02   50.59
  -5   2  -1 1771.12   55.19
  -6   2  -1  271.87   25.10
  -6   2  -1  224.98   18.60
  -6   2  -1  223.68   13.30
  -7   2  -1  254.97   24.60
  -7   2  -1  255.87   20.60
  -7   2  -1  247.68   14.90
  -8   2  -1  868.81   38.30
  -8   2  -1  976.80   48.80
  -9   2  -1  125.29   21.60
  -9   2  -1  166.98   28.20
  -9   2  -1  122.69   20.80
 -10   2  -1    2.60   14.40
 -10   2  -1   -7.90   10.70
 -10   2  -1   22.70   17.60
 -11   2  -1  131.69   26.80
 -11   2  -1  151.38   24.80
 -11   2  -1  154.18   29.50
 -11  -1   1  142.49   27.00
 -11  -1   1  144.39   30.20
 -10  -1   1  328.67   35.40
 -10  -1   1  305.67   36.80
  -9  -1   1   40.20   16.70
  -9  -1   1    0.80   14.80
  -8  -1   1  121.69   20.50
  -8  -1   1  105.69   17.10
  -8  -1   1  140.79   25.60
  -7  -1   1  711.83   36.40
  -7  -1   1  724.63   29.30
  -7  -1   1  688.23   38.90
  -6  -1   1  118.99   19.20
  -6  -1   1  110.99   18.80
  -6  -1   1   99.39   12.80
  -5  -1   1  775.12   33.90
  -5  -1   1  842.72   34.20
  -5  -1   1  817.22   26.40
   4   1  -1 2000.40   45.60
  -4  -1   1 2050.09   55.59
  -4  -1   1 2047.10   46.70
  -4  -1   1 1904.11   53.59
   3   1  -1 1964.80   42.60
  -3  -1   1 1985.50   42.80
  -3  -1   1 1850.21   50.19
  -3  -1   1 1983.50   43.00
  -3  -1   1 1972.00   50.09
   2   1  -1   25.70    4.30
   2   1  -1   12.20    7.10
   2   1  -1   22.80    3.90
  -2  -1   1   28.00    4.40
  -2  -1   1   33.80    7.70
  -2  -1   1   21.40    4.00
  -2  -1   1   21.00    6.90
   1   1  -1 1367.86   31.40
   1   1  -1 1336.77   27.40
  -1  -1   1 1329.47   31.70
  -1  -1   1 1343.77   31.20
  -1  -1   1 1344.57   32.00
  -1  -1   1 1359.16   32.40
   0   1  -1 5522.45  105.09
   0   1  -1 5411.96  103.59
   0   1  -1 5417.56  105.09
   0   1  -1 5391.66  104.79
   0  -1   1 5527.05  105.19
   0  -1   1 5359.86  104.89
   0  -1   1 5429.56  103.69
   0  -1   1 5441.46  105.09
   0  -1   1 5426.06  105.79
  -1   1  -1   28.80    5.20
  -1   1  -1   19.80    5.30
  -1   1  -1   28.00    4.80
  -1   1  -1   31.20    5.60
   1  -1   1   19.60    6.50
   1  -1   1   42.60    4.90
   1  -1   1   27.90    4.80
   1  -1   1   20.10    5.20
  -2   1  -1  992.10   27.10
  -2   1  -1 1001.50   22.20
  -3   1  -1 1066.19   33.80
  -3   1  -1 1079.49   30.80
  -4   1  -1    4.20    8.30
  -4   1  -1    3.80    6.20
  -5   1  -1  293.27   18.40
  -5   1  -1  291.07   23.00
  -6   1  -1 1488.15   46.40
  -6   1  -1 1604.94   55.79
  -7   1  -1  738.53   40.00
  -7   1  -1  782.42   32.90
  -7   1  -1  711.73   37.10
  -8   1  -1    8.50   13.10
  -8   1  -1   32.80   13.90
  -8   1  -1    7.90    9.40
  -9   1  -1  228.68   31.20
  -9   1  -1  161.28   24.80
  -9   1  -1  207.38   21.90
 -10   1  -1  210.68   33.60
 -10   1  -1  176.88   29.90
 -10   1  -1  226.78   25.80
 -11   1  -1   18.10   18.70
 -11   1  -1   -2.50   14.90
 -11   0   1   16.70   18.20
 -11   0   1    3.60   16.60
 -10   0   1  170.48   30.50
 -10   0   1  166.58   28.60
  -9   0   1  406.06   26.20
  -9   0   1  420.66   35.90
  -9   0   1  422.86   32.90
  -8   0   1  349.47   32.20
  -8   0   1  375.46   23.40
  -8   0   1  401.76   31.10
  -7   0   1   24.20   11.80
  -7   0   1   26.20    8.90
  -7   0   1   35.50   13.80
  -6   0   1  580.34   24.10
  -6   0   1  513.05   29.50
  -6   0   1  606.94   30.60
   5   0  -1  869.71   27.90
  -5   0   1  892.21   28.10
  -5   0   1  891.61   34.10
  -5   0   1  843.22   34.10
   4   0  -1  726.53   23.20
  -4   0   1  698.13   26.80
  -4   0   1  699.13   27.80
  -4   0   1  713.53   22.90
   3   0  -1  816.12   22.50
  -3   0   1  781.12   26.60
  -3   0   1  762.02   22.00
  -3   0   1  778.52   25.50
   2   0  -1 2477.05   51.29
  -2   0   1 2434.36   53.79
  -2   0   1 2486.25   50.29
  -2   0   1 2429.56   51.19
  -2   0   1 2402.16   53.39
   1   0  -1  477.05   14.10
   1   0  -1  483.15   12.80
   1   0  -1  474.95   12.50
  -1   0   1  497.95   14.10
  -1   0   1  489.35   13.20
  -1   0   1  474.15   12.40
  -1   0   1  485.55   12.50
   0   0  -1 3713.93   70.59
   0   0  -1 3573.84   71.39
   0   0  -1 3840.22   69.79
   0   0   1 3248.18   69.69
   0   0   1 3776.92   69.79
   0   0   1 3743.13   71.29
  -1   0  -1 3467.05   65.49
  -1   0  -1 3490.35   69.59
  -1   0  -1 3416.56   71.19
   1   0   1 3432.26   70.69
   1   0   1 3519.45   71.49
   1   0   1 3464.05   65.59
  -2   0  -1 2249.27   50.59
  -2   0  -1 2300.27   46.30
  -2   0  -1 2339.27   54.79
  -3   0  -1 1060.69   29.70
  -3   0  -1 1039.20   25.20
  -3   0  -1 1016.70   34.40
  -4   0  -1 1367.16   38.50
  -4   0  -1 1428.56   45.40
  -5   0  -1  504.35   23.30
  -5   0  -1  536.05   27.70
  -5   0  -1  586.84   30.50
  -6   0  -1  112.19   14.90
  -6   0  -1   65.99   13.20
  -6   0  -1  113.89   20.90
  -7   0  -1  607.54   35.40
  -7   0  -1  566.64   36.80
  -7   0  -1  568.74   28.80
  -8   0  -1  439.26   34.10
  -8   0  -1  409.46   35.50
  -8   0  -1  498.05   29.20
  -9   0  -1   64.69   18.40
  -9   0  -1   22.60   12.50
  -9   0  -1   17.90   17.10
 -10   0  -1   91.59   23.90
 -10   0  -1  138.49   25.30
 -11   0  -1  173.18   30.20
 -11   0  -1  223.38   37.20
 -11   1   1  334.67   38.10
 -11   1   1  298.87   35.30
 -10   1   1  143.59   24.30
 -10   1   1  139.59   24.80
  -9   1   1   15.00   10.70
  -9   1   1   21.20   14.00
  -9   1   1   18.50   15.30
  -8   1   1  463.25   32.40
  -8   1   1  510.95   26.90
  -8   1   1  479.15   33.60
  -7   1   1  271.47   19.30
  -7   1   1  275.97   25.00
  -7   1   1  283.77   24.60
   6  -1  -1   -2.60    7.30
  -6   1   1   13.50    7.40
  -6   1   1   -1.80    8.40
  -6   1   1   -0.80    9.50
   5  -1  -1  288.67   17.40
  -5   1   1  300.97   19.90
  -5   1   1  276.87   19.40
  -5   1   1  245.88   16.10
   4  -1  -1  819.02   26.40
  -4   1   1  780.22   28.80
  -4   1   1  770.52   25.10
   3  -1  -1  173.98   12.60
  -3   1   1  174.18   11.90
   2  -1  -1  191.08   12.00
   1  -1  -1 6076.19  119.79
   1  -1  -1 6205.18  119.69
   1  -1  -1 6179.78  117.49
  -1   1   1 6201.08  117.49
  -1   1   1 6155.48  119.59
  -1   1   1 6168.68  119.19
   0  -1  -1 1834.82   38.80
   0  -1  -1 1774.32   36.50
   0  -1  -1 1748.33   35.90
   0  -1  -1 1806.32   37.20
   0  -1  -1 1744.53   37.40
   0  -1  -1 1769.92   36.50
   0   1   1 1823.72   35.90
   0   1   1 1708.73   36.40
   0   1   1 1762.42   38.20
   0   1   1 1743.63   36.60
   0   1   1 1813.22   37.50
   0   1   1 1730.93   37.10
  -1  -1  -1  246.58   10.60
  -1  -1  -1  275.87   15.20
  -1  -1  -1  279.67   13.10
  -1  -1  -1  260.37   12.50
   1   1   1  252.97   12.80
   1   1   1  249.38   10.60
  -2  -1  -1 2767.32   65.59
  -2  -1  -1 2767.42   60.69
  -2  -1  -1 2770.12   62.89
   2   1   1 2823.42   58.49
  -3  -1  -1 1711.83   48.80
  -3  -1  -1 1609.44   45.00
  -3  -1  -1 1696.03   42.20
   3   1   1 1673.83   39.80
  -4  -1  -1   70.29   14.00
  -4  -1  -1   65.49   10.90
  -4  -1  -1   88.19   13.60
  -5  -1  -1  458.05   29.40
  -5  -1  -1  480.45   22.70
  -5  -1  -1  521.65   28.20
  -6  -1  -1  691.83   38.30
  -6  -1  -1  714.23   34.60
  -6  -1  -1  710.63   29.90
  -7  -1  -1   39.10   16.50
  -7  -1  -1   40.60   11.50
  -7  -1  -1   48.20   14.90
  -8  -1  -1  174.38   20.80
  -8  -1  -1  128.49   22.70
  -8  -1  -1  183.58   29.70
  -9  -1  -1  437.56   37.30
  -9  -1  -1  400.96   39.30
 -10  -1  -1   52.79   20.00
 -10  -1  -1   63.59   24.20
 -11   2   1   -9.20   14.80
 -11   2   1   -3.50   14.10
 -10   2   1  390.76   37.00
 -10   2   1  391.56   28.80
 -10   2   1  438.36   35.90
  -9   2   1  409.56   32.70
  -9   2   1  347.67   25.20
  -9   2   1  397.46   34.10
  -9   2   1  386.66   25.40
  -8   2   1   -2.50    7.50
  -8   2   1    9.70    8.80
  -8   2   1    3.00   10.50
  -8   2   1    8.20   13.30
  -7   2   1  645.04   35.40
  -7   2   1  617.04   26.60
  -7   2   1  668.73   28.90
   6  -2  -1 1342.27   42.40
  -6   2   1 1346.07   41.90
  -6   2   1 1396.56   47.50
   5  -2  -1  851.81   30.50
  -5   2   1  859.31   28.10
  -5   2   1  808.22   32.90
  -5   2   1  786.52   28.50
   4  -2  -1   -3.30    7.10
  -4   2   1    8.80    6.50
  -4   2   1    3.90    5.60
   3  -2  -1  531.05   21.10
  -3   2   1  508.95   18.50
   2  -2  -1  649.64   21.80
  -2   2   1  672.33   21.10
  -2   2   1  669.23   22.90
   1  -2  -1    6.90    5.30
   1  -2  -1   12.50    7.00
   1  -2  -1   18.40    5.40
  -1   2   1   11.00    6.10
  -1   2   1    9.60    4.70
   0  -2  -1 5825.72  114.49
   0  -2  -1 5796.12  113.19
   0  -2  -1 5890.91  114.99
   0  -2  -1 5832.32  117.99
   0   2   1 5727.03  113.19
   0   2   1 6001.60  116.09
   0   2   1 5688.03  114.19
  -1  -2  -1 2809.62   62.19
  -1  -2  -1 2970.30   58.69
  -1  -2  -1 3072.89   67.69
  -1  -2  -1 2974.40   64.39
   1   2   1 2900.31   62.79
  -2  -2  -1   72.89   10.10
  -2  -2  -1   40.40    9.70
  -2  -2  -1   87.59   12.70
   2   2   1   60.09    8.60
  -3  -2  -1 1780.32   49.30
  -3  -2  -1 1694.33   44.10
  -3  -2  -1 1765.02   39.00
  -3  -2  -1 1832.02   52.79
   3   2   1 1740.83   44.30
  -4  -2  -1  462.05   21.30
  -4  -2  -1  478.55   28.80
  -4  -2  -1  487.25   25.10
   4   2   1  498.35   21.20
  -5  -2  -1   76.79   14.90
  -5  -2  -1   52.49   11.10
  -5  -2  -1   97.69   18.00
  -6  -2  -1  182.28   25.90
  -6  -2  -1  129.39   17.50
  -6  -2  -1  143.89   21.60
  -7  -2  -1  355.36   24.50
  -7  -2  -1  297.67   32.60
  -7  -2  -1  380.56   29.30
  -8  -2  -1   91.69   22.50
  -8  -2  -1   99.89   21.70
  -9  -2  -1    8.40   15.10
  -9  -2  -1   24.90   18.00
 -10  -2  -1  246.38   35.80
 -10  -2  -1  212.08   35.40
 -12   3   1  146.69   29.50
 -12   3   1  111.89   23.80
 -11   3   1  316.97   29.20
 -11   3   1  316.87   36.40
 -11   3   1  377.16   36.10
 -10   3   1   35.20   18.40
 -10   3   1   18.60   11.80
 -10   3   1   50.49   16.30
  -9   3   1  178.58   20.40
  -9   3   1  171.08   17.80
  -9   3   1  199.58   26.40
  -9   3   1  191.58   24.10
  -8   3   1  413.36   26.20
  -8   3   1  419.16   22.80
  -8   3   1  412.06   31.70
   7  -3  -1    5.60    9.30
  -7   3   1    6.40    7.40
  -7   3   1   12.80    8.90
  -7   3   1   12.10   11.40
   6  -3  -1  373.76   23.10
  -6   3   1  402.06   22.30
  -6   3   1  353.46   18.80
   5  -3  -1 1590.64   47.60
  -5   3   1 1613.24   43.80
  -5   3   1 1632.94   46.60
   4  -3  -1 1216.08   36.90
  -4   3   1 1169.68   33.80
   3  -3  -1   42.10    9.60
  -3   3   1   39.10    8.20
   2  -3  -1  995.40   28.80
   2  -3  -1  985.70   27.70
  -2   3   1 1007.10   29.40
  -2   3   1  990.10   20.90
   1  -3  -1 3498.45   73.29
   1  -3  -1 3423.06   73.59
   1  -3  -1 3467.15   77.09
  -1   3   1 3631.24   76.19
   0  -3  -1  455.35   17.10
   0  -3  -1  435.16   17.80
   0  -3  -1  448.76   20.60
   0  -3  -1  419.66   14.70
   0   3   1  478.35   16.30
  -1  -3  -1  486.55   13.70
  -1  -3  -1  489.05   20.30
  -1  -3  -1  461.85   17.70
  -1  -3  -1  475.25   22.50
   1   3   1  471.05   19.50
  -2  -3  -1 1373.96   44.20
  -2  -3  -1 1431.06   40.90
  -2  -3  -1 1463.15   30.30
  -2  -3  -1 1406.56   36.80
   2   3   1 1427.36   39.00
  -3  -3  -1    0.10    3.20
  -3  -3  -1    5.70    9.20
  -3  -3  -1    6.80    7.00
  -3  -3  -1    5.40   11.10
   3   3   1    3.40    7.30
  -4  -3  -1  489.25   27.30
  -4  -3  -1  483.05   21.50
  -4  -3  -1  471.65   14.50
  -4  -3  -1  485.35   30.10
   4   3   1  428.26   22.30
  -5  -3  -1 1021.60   45.60
  -5  -3  -1 1009.50   42.00
  -5  -3  -1  897.41   33.20
   5   3   1  969.30   35.10
  -6  -3  -1  412.16   33.90
  -6  -3  -1  356.66   23.30
  -6  -3  -1  346.37   27.60
  -7  -3  -1    3.50   15.30
  -7  -3  -1  -14.40   12.60
  -7  -3  -1  -11.40   12.20
  -8  -3  -1  161.78   27.60
  -8  -3  -1  126.79   25.90
  -9  -3  -1  202.18   31.80
  -9  -3  -1  179.78   31.80
 -10  -3  -1   -1.80   16.00
 -10  -3  -1  -41.80   18.30
 -12   4   1    4.90   16.20
 -12   4   1   39.90   16.30
 -12   4   1  -10.10   16.90
 -11   4   1   89.19   18.30
 -11   4   1  107.59   20.30
 -11   4   1   51.29   21.10
 -10   4   1  305.37   29.60
 -10   4   1  293.97   26.80
 -10   4   1  244.38   31.50
  -9   4   1  158.78   21.00
  -9   4   1  103.99   20.80
  -9   4   1  119.49   16.90
  -8   4   1   99.39   17.00
  -8   4   1  145.49   23.20
  -8   4   1  106.39   15.60
   7  -4  -1 1167.18   44.20
  -7   4   1 1176.88   42.80
  -7   4   1 1237.38   39.50
   6  -4  -1 1117.29   40.70
  -6   4   1 1152.78   41.10
  -6   4   1 1185.88   37.30
   5  -4  -1    8.60    9.70
  -5   4   1    2.70    7.00
   4  -4  -1 2944.91   71.69
  -4   4   1 2869.01   69.29
   3  -4  -1 2619.64   63.69
  -3   4   1 2575.24   62.69
  -3   4   1 2639.74   53.29
   2  -4  -1   54.89    9.30
   2  -4  -1   45.90   10.00
   2  -4  -1   54.29    9.20
  -2   4   1   58.69   10.00
   1  -4  -1  609.84   15.60
   1  -4  -1  618.34   22.30
   1  -4  -1  612.34   21.10
   1  -4  -1  643.74   26.30
  -1   4   1  589.64   24.00
   0  -4  -1 1631.04   47.20
   0  -4  -1 1690.93   39.00
   0  -4  -1 1677.03   43.30
   0   4   1 1643.94   45.00
  -1  -4  -1  442.86   25.80
  -1  -4  -1  480.85   14.50
  -1  -4  -1  484.95   22.20
  -1  -4  -1  488.95   19.30
   1   4   1  460.35   21.80
  -2  -4  -1   73.79   10.80
  -2  -4  -1   77.09   12.30
  -2  -4  -1   90.29   15.40
   2   4   1   63.09   11.00
  -3  -4  -1  638.64   29.40
  -3  -4  -1  647.14   24.00
  -3  -4  -1  636.54   32.00
   3   4   1  643.64   27.60
  -4  -4  -1  120.09   18.90
  -4  -4  -1  125.29   13.80
  -4  -4  -1  142.99   22.80
   4   4   1  100.89   16.50
  -5  -4  -1    2.90   11.40
  -5  -4  -1   12.80   14.70
  -5  -4  -1    2.30    8.10
   5   4   1   -1.50    9.70
  -6  -4  -1  359.66   34.60
  -6  -4  -1  350.76   29.70
  -6  -4  -1  352.66   23.10
   6   4   1  380.66   25.90
  -7  -4  -1  389.66   33.90
  -7  -4  -1  393.76   37.80
  -8  -4  -1   46.40   19.90
  -8  -4  -1   21.30   15.60
  -9  -4  -1  110.39   25.10
  -9  -4  -1  110.59   27.40
 -12   5   1  182.48   32.30
 -12   5   1  179.08   27.50
 -12   5   1  166.68   26.90
 -11   5   1   57.69   18.00
 -11   5   1   94.69   20.00
 -11   5   1  169.88   31.00
 -10   5   1    3.70   15.30
 -10   5   1    2.20   11.80
  -9   5   1  139.69   22.00
  -9   5   1  116.19   21.80
  -9   5   1  100.69   16.70
  -8   5   1  620.24   29.30
  -8   5   1  651.13   34.60
   7  -5  -1    1.00   11.20
  -7   5   1   14.70    8.40
  -7   5   1   21.70   11.50
   6  -5  -1  474.85   27.20
  -6   5   1  524.05   24.80
  -6   5   1  514.75   28.60
   5  -5  -1 1007.30   38.50
  -5   5   1  991.10   34.70
   4  -5  -1    3.50    9.40
  -4   5   1    3.80    8.20
  -4   5   1    7.40    5.20
   3  -5  -1  475.55   23.10
   3  -5  -1  493.45   23.10
  -3   5   1  495.95   23.70
   2  -5  -1 1860.41   52.59
   2  -5  -1 1678.53   46.10
   2  -5  -1 1722.23   47.10
  -2   5   1 1769.12   49.20
   1  -5  -1 1080.89   32.00
   1  -5  -1 1112.79   34.70
   1  -5  -1 1107.39   39.00
   1  -5  -1 1104.09   26.40
  -1   5   1 1140.79   36.90
   0  -5  -1  110.19   10.10
   0  -5  -1  120.09   18.80
   0  -5  -1  104.39   13.90
   0   5   1  100.09   14.30
  -1  -5  -1  515.75   25.00
  -1  -5  -1  527.15   29.40
  -1  -5  -1  507.35   16.10
   1   5   1  502.25   25.00
  -2  -5  -1  771.32   26.90
  -2  -5  -1  788.42   33.40
  -2  -5  -1  825.32   37.70
   2   5   1  839.42   32.70
  -3  -5  -1   13.10    7.40
  -3  -5  -1    5.50   10.40
  -3  -5  -1    0.30   10.80
   3   5   1   11.80   10.00
  -4  -5  -1  255.67   24.90
  -4  -5  -1  269.27   17.80
  -4  -5  -1  250.57   28.90
   4   5   1  251.97   22.10
  -5  -5  -1  653.43   27.00
  -5  -5  -1  604.04   37.20
  -5  -5  -1  655.03   40.00
   5   5   1  634.04   33.00
  -6  -5  -1   -4.50   15.10
  -6  -5  -1   -5.90   12.50
   6   5   1    3.40   10.70
  -7  -5  -1  114.39   22.10
  -7  -5  -1  111.59   24.30
  -8  -5  -1  265.37   39.70
  -8  -5  -1  279.57   34.60
 -12   6   1   20.90   14.90
 -12   6   1  -17.00   11.90
 -12   6   1   11.70   16.60
 -11   6   1  130.29   21.90
 -11   6   1  106.29   24.50
 -10   6   1  126.69   25.50
 -10   6   1  179.58   26.50
  -9   6   1   12.20    9.90
  -9   6   1   33.20   14.00
   8  -6  -1  363.56   29.10
  -8   6   1  377.46   24.40
  -8   6   1  330.87   26.90
   7  -6  -1  423.76   29.40
  -7   6   1  483.35   31.20
  -7   6   1  438.46   25.80
   6  -6  -1  328.27   24.10
  -6   6   1  281.77   21.00
   5  -6  -1  204.48   20.60
  -5   6   1  192.78   17.90
   4  -6  -1  482.15   24.70
   4  -6  -1  466.55   26.10
  -4   6   1  445.96   24.60
   3  -6  -1  141.29   16.20
   3  -6  -1  121.39   16.50
  -3   6   1  164.38   18.00
   2  -6  -1  230.38   22.30
   2  -6  -1  281.57   18.40
   2  -6  -1  265.67   19.00
  -2   6   1  288.07   21.30
   1  -6  -1  735.53   26.30
   1  -6  -1  755.12   21.60
   1  -6  -1  752.72   33.50
   1  -6  -1  849.22   31.30
  -1   6   1  736.03   31.30
   0  -6  -1  311.07   16.00
   0  -6  -1  329.77   16.50
   0  -6  -1  340.77   21.50
   0  -6  -1  346.87   25.00
   0   6   1  365.96   23.60
  -1  -6  -1   39.80   11.90
  -1  -6  -1   23.80   11.50
  -1  -6  -1   50.09    7.70
   1   6   1   45.60   12.70
  -2  -6  -1  381.36   28.50
  -2  -6  -1  386.26   26.10
   2   6   1  383.86   25.70
  -3  -6  -1  837.22   39.80
  -3  -6  -1  837.52   30.20
  -3  -6  -1  797.82   42.00
   3   6   1  827.62   37.10
  -4  -6  -1  225.88   17.60
  -4  -6  -1  224.98   25.30
  -4  -6  -1  208.08   29.20
   4   6   1  236.98   23.80
  -5  -6  -1  296.87   30.90
  -5  -6  -1  265.87   34.00
   5   6   1  301.67   26.50
  -6  -6  -1  255.37   31.50
  -6  -6  -1  266.07   35.00
   6   6   1  280.17   28.30
  -7  -6  -1   72.89   20.50
  -7  -6  -1  100.89   26.10
  -8  -6  -1   40.20   20.60
  -8  -6  -1   14.50   18.40
 -11   7   1  -12.30   14.70
 -11   7   1  -12.60   14.10
 -10   7   1  102.79   22.50
  -9   7   1  249.58   26.40
  -9   7   1  228.58   22.20
  -8   7   1   67.49   14.50
  -8   7   1   94.19   19.10
   7  -7  -1    0.00   10.50
  -7   7   1    1.30    9.60
  -7   7   1  -13.10   10.00
   6  -7  -1  613.44   34.10
  -6   7   1  629.24   30.90
   5  -7  -1  353.46   26.00
  -5   7   1  344.17   23.80
   4  -7  -1   -1.20    9.70
   4  -7  -1  -11.50    9.00
  -4   7   1   -6.40    9.40
   3  -7  -1  664.43   31.00
   3  -7  -1  620.24   29.10
  -3   7   1  733.93   32.80
   2  -7  -1  456.55   29.50
   2  -7  -1  379.86   21.50
   2  -7  -1  382.16   25.00
  -2   7   1  415.06   26.50
   1  -7  -1   14.90   12.70
   1  -7  -1   -4.40    4.40
   1  -7  -1    5.20    9.30
   1  -7  -1   -2.70    7.20
  -1   7   1    3.80   11.20
   0  -7  -1  396.26   25.40
   0  -7  -1  405.56   18.40
   0  -7  -1  388.76   30.30
   0  -7  -1  440.86   20.20
   0   7   1  408.16   26.80
  -1  -7  -1  629.94   32.50
  -1  -7  -1  644.24   28.10
  -1  -7  -1  684.43   38.60
   1   7   1  716.23   34.70
  -2  -7  -1   88.39   16.20
  -2  -7  -1   90.49   17.00
  -2  -7  -1   74.69   17.70
   2   7   1   81.49   16.70
  -3  -7  -1   92.29   19.60
  -3  -7  -1   80.89   17.90
   3   7   1   95.59   18.60
  -4  -7  -1  597.94   37.40
  -4  -7  -1  580.44   40.30
   4   7   1  559.94   35.00
  -5  -7  -1  233.58   35.00
  -5  -7  -1  243.98   29.70
   5   7   1  179.38   26.80
  -6  -7  -1    9.40   14.60
  -6  -7  -1    6.50   16.10
  -6  -7  -1   -2.70   16.20
   6   7   1    3.00   14.50
  -7  -7  -1  119.49   25.80
  -7  -7  -1   84.09   25.10
  -7  -7  -1  133.39   28.00
 -11   8   1  137.39   28.40
 -11   8   1  202.58   29.60
 -10   8   1   24.80   15.10
  -9   8   1   37.50   16.70
  -9   8   1   32.10   13.40
  -8   8   1  239.88   24.10
  -8   8   1  220.68   25.10
   7  -8  -1  437.76   32.50
  -7   8   1  446.26   32.20
  -7   8   1  427.36   28.40
   6  -8  -1   16.80   13.50
  -6   8   1   20.90   11.90
   5  -8  -1  398.86   28.20
  -5   8   1  393.26   27.50
   4  -8  -1  535.15   31.00
   4  -8  -1  514.55   29.50
  -4   8   1  626.84   33.10
   3  -8  -1   17.20   12.70
   3  -8  -1    8.60   12.70
   3  -8  -1   27.70   11.60
  -3   8   1   29.70   12.20
   2  -8  -1  199.88   25.90
   2  -8  -1  203.08   21.90
   2  -8  -1  260.47   20.10
  -2   8   1  208.88   23.60
   1  -8  -1  476.75   23.00
   1  -8  -1  475.65   28.60
   1  -8  -1  437.76   33.30
  -1   8   1  441.46   30.10
   0  -8  -1  103.09   17.60
   0  -8  -1  133.39   22.20
   0  -8  -1  106.49   13.30
   0   8   1   97.89   17.80
  -1  -8  -1   80.89   17.10
  -1  -8  -1   73.39   19.80
  -1  -8  -1   59.59   12.00
   1   8   1  122.59   20.20
  -2  -8  -1  284.07   32.30
  -2  -8  -1  210.78   21.00
  -2  -8  -1  242.08   26.10
   2   8   1  184.58   25.20
  -3  -8  -1  118.89   20.20
  -3  -8  -1  113.79   23.40
  -3  -8  -1   99.79   19.80
   3   8   1  108.49   20.60
  -4  -8  -1   12.50   15.90
  -4  -8  -1    7.60   12.60
  -4  -8  -1    4.50   16.40
   4   8   1   11.80   15.40
  -5  -8  -1   91.99   22.30
  -5  -8  -1   70.99   19.40
  -5  -8  -1   92.29   23.70
   5   8   1  109.19   21.70
  -6  -8  -1  123.19   24.30
  -6  -8  -1   81.89   23.20
  -6  -8  -1   79.59   26.50
 -11   9   1   -1.30   15.00
 -10   9   1   91.09   21.90
  -9   9   1  162.78   24.70
  -9   9   1  175.88   27.60
  -8   9   1   -5.30   12.50
  -8   9   1   -0.50   12.80
  -7   9   1  164.08   25.10
  -7   9   1  209.78   24.60
   6  -9  -1  300.67   28.70
  -6   9   1  347.87   28.10
   5  -9  -1   33.40   13.30
   5  -9  -1   36.80   14.30
  -5   9   1   12.20   13.50
   4  -9  -1  143.69   22.50
   4  -9  -1  120.59   19.40
  -4   9   1  121.19   20.00
   3  -9  -1  521.95   33.20
   3  -9  -1  562.54   30.20
   3  -9  -1  558.84   37.90
  -3   9   1  577.54   35.20
   2  -9  -1  130.79   21.50
   2  -9  -1  118.79   21.60
   2  -9  -1  133.69   18.20
  -2   9   1  128.89   21.10
   1  -9  -1   64.09   17.80
   1  -9  -1   38.70   14.50
  -1   9   1   37.00   16.00
   0  -9  -1  318.27   29.20
   0  -9  -1  285.77   32.50
   0   9   1  275.57   28.40
  -1  -9  -1  178.18   26.70
  -1  -9  -1  105.89   23.10
   1   9   1  132.79   22.10
  -2  -9  -1   13.50   14.70
  -2  -9  -1  -18.40   15.20
   2   9   1  -11.10   13.80
  -3  -9  -1  113.89   22.50
  -3  -9  -1  130.79   26.00
   3   9   1  172.48   27.20
  -4  -9  -1  121.09   25.50
  -4  -9  -1  127.29   24.90
   4   9   1  120.79   23.90
  -5  -9  -1   21.80   16.70
  -5  -9  -1   -5.60   18.70
   5   9   1   -0.90   15.60
 -10  10   1   -8.30   15.10
  -9  10   1   89.69   23.30
  -9  10   1  144.99   25.20
  -8  10   1  199.88   26.90
  -8  10   1  173.08   26.60
  -7  10   1    9.10   14.10
  -7  10   1   42.30   15.40
  -6  10   1   90.29   20.00
   5 -10  -1  253.17   28.70
  -5  10   1  273.77   28.70
   4 -10  -1  110.69   19.50
  -4  10   1   98.69   20.60
   3 -10  -1   22.80   14.30
   3 -10  -1    1.40   15.80
  -3  10   1    9.50   14.20
   2 -10  -1  242.38   29.10
   2 -10  -1  195.48   28.60
  -2  10   1  216.78   27.80
   1 -10  -1  285.87   34.50
   1 -10  -1  204.78   29.00
  -1  10   1  246.88   29.80
   0 -10  -1   10.90   15.50
   0 -10  -1   30.70   19.50
   0  10   1   -1.50   14.20
  -1 -10  -1  103.39   23.70
  -1 -10  -1  109.29   21.40
   1  10   1   94.69   21.30
  -2 -10  -1  128.79   27.90
  -2 -10  -1  150.28   25.30
   2  10   1  192.88   30.00
  -3 -10  -1   -3.30   16.60
  -3 -10  -1  -10.70   18.40
   3  10   1   35.10   17.80
  -4 -10  -1    4.60   17.60
  -4 -10  -1   41.90   23.10
   4  10   1   23.30   17.20
 -10  11   1   94.99   25.30
  -9  11   1   32.40   17.50
  -9  11   1   40.20   20.10
  -8  11   1    1.10   15.20
  -8  11   1   10.70   17.00
  -7  11   1  163.28   27.30
  -7  11   1  123.79   22.90
  -6  11   1   52.89   18.20
   5 -11  -1    6.70   14.10
  -5  11   1  -15.90   13.80
   4 -11  -1   43.50   17.20
  -4  11   1   78.49   20.40
   3 -11  -1  185.48   33.30
   3 -11  -1  209.18   29.80
  -3  11   1  225.48   30.70
   2 -11  -1   21.70   19.10
   2 -11  -1   -5.30   14.90
  -2  11   1   -9.80   15.40
   1 -11  -1   85.99   20.40
   1 -11  -1  111.89   24.70
  -1  11   1  116.79   24.80
   0 -11  -1  155.88   25.10
   0 -11  -1  175.38   30.80
   0  11   1  151.28   26.70
  -1 -11  -1   13.70   19.50
  -1 -11  -1    3.30   16.70
   1  11   1    1.20   16.00
  -2 -11  -1    3.40   17.00
  -2 -11  -1   67.19   23.80
   2  11   1   18.10   17.50
  -3 -11  -1  101.89   28.20
  -3 -11  -1  116.59   27.20
   3  11   1  127.29   25.90
  -8  12   1   40.30   20.50
  -8  12   1   79.99   23.90
  -7  12   1   21.40   15.70
  -7  12   1    7.70   17.10
  -6  12   1   94.19   23.40
  -5  12   1   57.09   20.30
  -4  12   1  -27.90   14.40
   3 -12  -1   17.60   20.40
  -3  12   1   39.90   19.00
   2 -12  -1  106.99   26.60
  -2  12   1   83.29   24.00
   1 -12  -1   96.99   24.70
   1 -12  -1   47.00   22.70
  -1  12   1   51.39   20.90
   0 -12  -1  -15.90   17.20
   0 -12  -1    5.70   19.00
   0  12   1   -0.70   17.00
  -1 -12  -1   21.90   21.40
  -1 -12  -1   29.00   22.40
   1  12   1   55.19   22.20
  -7  13   1   92.99   22.80
  -7  13   1   98.39   23.40
  -6  13   1   11.10   18.60
  -5  13   1  -11.90   17.40
  -4  13   1   91.19   25.20
  -3  13   1   -5.70   17.70
   2 -13  -1   13.40   21.60
  -2  13   1    0.40   18.50
   1 -13  -1   18.00   22.00
  -1  13   1   75.39   25.10
  -1  13  -2   50.79   22.70
   1 -13   2    3.40   21.70
   1 -13   2  -10.20   19.00
  -2  13  -2    8.50   17.70
   2 -13   2  -32.10   19.10
  -3  13  -2   64.19   22.30
   3 -13   2   71.59   24.00
  -4  13  -2   56.49   22.00
  -4  13  -2   80.89   19.10
   4 -13   2   62.09   22.10
  -5  13  -2  -32.20   11.90
  -5  13  -2    7.90   19.20
   5 -13   2   32.90   21.10
  -6  13  -2   29.90   18.40
  -6  13  -2   19.40   19.10
   1  12  -2   67.69   23.00
  -1 -12   2   79.49   25.60
  -1 -12   2   25.30   20.70
   0  12  -2    6.30   18.00
   0 -12   2  -26.30   16.70
   0 -12   2   14.80   18.80
  -1  12  -2   45.10   18.60
   1 -12   2   83.89   22.00
   1 -12   2   50.49   22.70
  -2  12  -2   60.49   21.20
   2 -12   2   77.19   21.90
  -3  12  -2  -13.50   16.20
  -3  12  -2   -6.20   11.20
   3 -12   2   11.40   19.10
  -4  12  -2    6.40   13.40
  -4  12  -2   81.59   22.70
   4 -12   2   56.29   20.40
  -5  12  -2   96.69   22.70
  -5  12  -2  104.89   20.90
   5 -12   2  127.69   26.40
  -6  12  -2   34.70   17.70
  -6  12  -2   32.80   18.40
  -7  12  -2   30.20   18.70
  -7  12  -2   14.00   17.20
  -8  12  -2   79.29   22.00
  -8  12  -2   65.39   21.60
   3  11  -2  101.39   25.00
  -3 -11   2   21.40   19.60
  -3 -11   2   66.59   24.50
   2  11  -2   -5.70   15.70
  -2 -11   2  -34.90   15.30
  -2 -11   2  -12.90   17.50
   1  11  -2   86.39   23.20
  -1 -11   2  104.39   25.60
  -1 -11   2   46.60   21.70
   0  11  -2  144.89   25.90
   0 -11   2  150.78   26.60
   0 -11   2  236.48   33.10
  -1  11  -2    8.90   16.60
   1 -11   2   35.90   20.20
   1 -11   2   39.10   19.80
  -2  11  -2   99.19   22.20
   2 -11   2   40.90   20.00
  -3  11  -2  305.87   26.40
  -3  11  -2  255.57   31.30
   3 -11   2  223.28   34.30
  -4  11  -2   91.59   21.00
  -4  11  -2   77.59   18.40
   4 -11   2   72.79   20.70
  -5  11  -2   22.80   16.10
  -5  11  -2   10.60   13.10
   5 -11   2   25.40   17.70
  -6  11  -2  152.48   24.10
  -6  11  -2   96.19   20.80
  -7  11  -2   31.40   18.10
  -7  11  -2   44.50   16.90
  -8  11  -2   10.60   15.90
  -8  11  -2   29.60   16.70
  -9  11  -2   71.99   22.60
   4  10  -2   -5.20   15.70
  -4 -10   2    4.20   20.10
  -4 -10   2   -7.70   16.70
   3  10  -2   46.70   20.10
  -3 -10   2    9.50   17.50
  -3 -10   2   61.79   20.40
   2  10  -2  162.28   26.60
  -2 -10   2  176.18   29.00
  -2 -10   2  139.79   25.20
   1  10  -2   83.19   21.80
  -1 -10   2   61.19   20.60
  -1 -10   2   26.20   17.90
   0  10  -2   57.69   19.80
   0 -10   2   91.29   22.20
   0 -10   2   36.50   18.00
  -1  10  -2  291.07   31.10
   1 -10   2  292.97   33.60
   1 -10   2  290.17   33.50
  -2  10  -2  143.49   23.70
   2 -10   2  189.38   29.40
   2 -10   2  151.58   24.40
  -3  10  -2   -0.40    9.80
  -3  10  -2   15.60   13.50
   3 -10   2   27.40   17.20
  -4  10  -2  337.17   28.40
  -4  10  -2  259.37   28.20
   4 -10   2  311.97   31.50
  -5  10  -2  135.99   22.50
  -5  10  -2  178.98   25.70
   5 -10   2  129.79   23.50
  -6  10  -2    8.80   13.50
  -6  10  -2   16.80   14.30
  -7  10  -2  248.08   26.80
  -7  10  -2  177.28   26.50
  -8  10  -2   84.59   18.10
  -8  10  -2   71.59   18.90
  -9  10  -2    2.30   14.30
 -10  10  -2    0.20   18.60
   6   9  -2   -6.10   15.50
  -6  -9   2    0.10   15.20
  -6  -9   2   -3.50   19.20
  -6  -9   2  -21.20   17.80
   5   9  -2   42.50   19.00
  -5  -9   2   15.80   20.00
  -5  -9   2   44.70   17.90
  -5  -9   2   20.90   19.50
   4   9  -2  282.97   32.60
  -4  -9   2  191.38   32.10
  -4  -9   2  230.18   28.60
  -4  -9   2  241.68   35.00
   3   9  -2   55.69   19.20
  -3  -9   2   22.70   13.70
  -3  -9   2   13.00   19.10
  -3  -9   2   55.39   20.00
   2   9  -2   29.80   16.50
  -2  -9   2   23.20   13.00
  -2  -9   2   48.50   18.40
  -2  -9   2   44.40   17.80
   1   9  -2  477.85   35.10
  -1  -9   2  451.45   36.40
  -1  -9   2  389.16   33.60
   0   9  -2  135.79   22.70
   0  -9   2  113.79   21.80
   0  -9   2   88.69   19.50
  -1   9  -2   19.60   14.70
   1  -9   2   22.70   15.10
   1  -9   2   10.90   14.80
  -2   9  -2  218.48   25.90
   2  -9   2  267.57   28.90
   2  -9   2  260.37   29.40
  -3   9  -2  285.37   26.70
   3  -9   2  331.37   31.10
  -4   9  -2   -0.10   10.70
  -4   9  -2   -1.50   12.00
   4  -9   2   -2.10   13.20
  -5   9  -2  125.59   21.70
  -5   9  -2  129.49   21.70
   5  -9   2   80.99   20.00
  -6   9  -2  295.27   28.50
  -6   9  -2  271.37   25.80
  -7   9  -2    8.90   13.10
  -7   9  -2    0.80   11.90
  -8   9  -2    4.80   13.50
  -8   9  -2    8.70   12.40
  -9   9  -2  239.98   31.70
 -10   9  -2   53.69   20.30
  -7  -8   2   67.39   25.00
  -7  -8   2  113.79   25.00
  -7  -8   2   72.69   21.20
   6   8  -2  144.39   26.00
  -6  -8   2  223.28   34.90
  -6  -8   2  181.68   29.90
  -6  -8   2  283.87   37.60
   5   8  -2  144.79   24.90
  -5  -8   2   99.69   20.40
  -5  -8   2   98.39   24.00
  -5  -8   2  141.89   25.00
   4   8  -2  101.59   20.00
  -4  -8   2  116.39   23.90
  -4  -8   2  102.49   21.80
  -4  -8   2   85.69   18.60
   3   8  -2  276.07   29.40
  -3  -8   2  314.37   32.50
  -3  -8   2  283.37   25.40
  -3  -8   2  306.77   31.30
   2   8  -2  351.36   30.00
  -2  -8   2  303.67   29.70
  -2  -8   2  343.17   25.70
  -2  -8   2  372.36   33.10
   1   8  -2    6.50   13.60
  -1  -8   2   -9.30   12.80
  -1  -8   2   -3.20   12.80
  -1  -8   2    0.50    8.90
   0   8  -2  263.37   25.70
   0  -8   2  244.98   26.00
   0  -8   2  254.37   27.60
   0  -8   2  243.88   18.80
  -1   8  -2  369.66   26.30
   1  -8   2  365.26   20.00
   1  -8   2  353.36   29.00
   1  -8   2  390.66   30.50
  -2   8  -2  -11.20    9.40
   2  -8   2    3.20   11.70
   2  -8   2    0.00    7.70
   2  -8   2    0.60   12.20
  -3   8  -2  201.98   22.40
  -3   8  -2  251.27   21.30
   3  -8   2  232.38   26.80
  -4   8  -2  177.98   21.50
  -4   8  -2  171.98   21.00
   4  -8   2  160.58   24.80
  -5   8  -2  172.08   22.30
  -5   8  -2  210.18   23.00
   5  -8   2  226.58   26.20
  -6   8  -2   13.60   11.20
  -6   8  -2   17.60   13.90
  -7   8  -2  288.37   24.00
  -7   8  -2  297.47   29.00
  -8   8  -2  290.67   29.00
  -8   8  -2  340.97   24.90
  -9   8  -2  -15.00   15.10
 -10   8  -2  125.19   27.90
 -10   8  -2  114.19   23.50
 -11   8  -2   84.59   25.10
 -11   8  -2   88.29   23.50
  -7  -7   2   26.90   16.30
  -7  -7   2   58.19   22.00
  -7  -7   2   35.30   19.40
   6   7  -2   16.30   16.30
  -6  -7   2   -4.40   15.60
  -6  -7   2   16.60   15.50
  -6  -7   2   -6.60   16.60
   5   7  -2  406.76   33.60
  -5  -7   2  300.77   32.90
  -5  -7   2  422.96   33.60
  -5  -7   2  373.86   34.80
   4   7  -2  266.97   27.40
  -4  -7   2  215.48   25.50
  -4  -7   2  194.98   27.90
  -4  -7   2  211.68   28.50
   3   7  -2  -12.80   10.90
  -3  -7   2   -1.60   12.10
  -3  -7   2    3.20   10.50
  -3  -7   2    0.40   12.70
   2   7  -2  377.26   27.20
  -2  -7   2  438.66   26.80
  -2  -7   2  364.86   29.40
  -2  -7   2  413.66   31.00
   1   7  -2  508.95   29.60
  -1  -7   2  550.74   32.70
  -1  -7   2  527.05   32.00
  -1  -7   2  538.85   26.30
   0   7  -2   61.69   13.80
   0  -7   2   41.00   13.80
   0  -7   2   58.79   14.90
   0  -7   2   42.00    9.50
  -1   7  -2  530.45   29.30
   1  -7   2  501.15   21.80
   1  -7   2  456.65   29.40
   1  -7   2  523.85   31.00
  -2   7  -2  599.04   30.10
   2  -7   2  587.44   23.10
   2  -7   2  655.03   33.30
  -3   7  -2   67.99   12.70
  -3   7  -2   51.69   12.90
   3  -7   2   48.80   14.90
   3  -7   2   85.09   10.30
  -4   7  -2    5.60    9.50
  -4   7  -2    8.80    9.60
   4  -7   2    1.30   11.60
   4  -7   2   14.10    6.00
  -5   7  -2  302.17   24.80
  -5   7  -2  306.77   21.70
  -6   7  -2  252.87   21.00
  -6   7  -2  290.37   25.70
  -7   7  -2   -8.90    8.40
  -7   7  -2   -3.20   12.10
  -8   7  -2  286.87   29.30
  -8   7  -2  281.67   28.40
  -9   7  -2  231.48   29.20
 -10   7  -2    8.60   15.30
 -10   7  -2   40.60   18.70
 -11   7  -2    9.40   17.70
 -11   7  -2   32.90   22.50
  -8  -6   2   -5.90   16.90
  -8  -6   2  -27.90   14.50
  -8  -6   2   18.40   16.40
  -7  -6   2  154.18   27.10
  -7  -6   2  160.18   27.20
  -7  -6   2  176.08   28.70
   6   6  -2  158.98   24.80
  -6  -6   2  118.29   22.90
  -6  -6   2  139.39   23.70
  -6  -6   2  132.79   23.60
   5   6  -2    0.10   13.00
  -5  -6   2    1.90   12.10
  -5  -6   2    5.60   13.90
  -5  -6   2    1.30   13.80
   4   6  -2  146.89   22.70
  -4  -6   2  157.88   21.80
  -4  -6   2  124.69   20.70
  -4  -6   2  179.28   25.60
   3   6  -2  652.23   34.20
  -3  -6   2  670.53   36.70
  -3  -6   2  587.64   31.60
  -3  -6   2  658.23   36.00
   2   6  -2  189.78   21.30
  -2  -6   2  191.48   21.60
  -2  -6   2  174.98   18.10
  -2  -6   2  181.38   22.00
   1   6  -2  277.77   22.90
  -1  -6   2  305.37   24.10
  -1  -6   2  292.77   19.40
  -1  -6   2  316.17   24.00
   0   6  -2 1384.86   45.70
   0  -6   2 1466.85   47.50
   0  -6   2 1335.47   39.20
   0  -6   2 1332.97   46.00
  -1   6  -2  292.27   21.70
   1  -6   2  280.47   16.00
   1  -6   2  339.67   23.90
   1  -6   2  324.27   23.60
  -2   6  -2  329.27   20.30
   2  -6   2  302.17   16.70
   2  -6   2  330.27   24.40
  -3   6  -2 1225.28   39.90
  -3   6  -2 1117.09   38.40
   3  -6   2 1134.49   42.50
   3  -6   2 1133.29   31.60
  -4   6  -2  774.62   33.10
  -4   6  -2  717.73   29.70
   4  -6   2  793.72   26.00
   4  -6   2  747.73   35.70
  -5   6  -2   -6.70    7.40
  -5   6  -2  -12.00    8.80
  -6   6  -2  645.64   33.90
  -6   6  -2  632.54   27.40
  -7   6  -2  636.84   36.80
  -7   6  -2  745.23   29.80
  -8   6  -2   41.10   16.10
  -9   6  -2  115.89   22.00
  -9   6  -2   89.89   22.90
 -10   6  -2  224.68   34.70
 -10   6  -2  191.48   28.20
 -11   6  -2   93.39   25.70
 -11   6  -2  106.19   23.20
  -9  -5   2  132.09   27.60
  -9  -5   2  124.99   27.10
  -9  -5   2   66.79   23.30
  -8  -5   2  158.68   27.00
  -8  -5   2  209.28   32.30
  -8  -5   2  166.98   28.10
  -7  -5   2   29.70   17.00
  -7  -5   2   -0.50   14.00
  -7  -5   2    7.80   15.60
   6   5  -2   88.09   18.10
  -6  -5   2   95.79   20.60
  -6  -5   2  112.19   20.10
  -6  -5   2  101.19   21.20
   5   5  -2  502.45   32.10
  -5  -5   2  431.26   32.40
  -5  -5   2  470.05   33.10
  -5  -5   2  453.95   33.00
   4   5  -2  112.09   19.50
  -4  -5   2  144.19   21.70
  -4  -5   2  133.09   21.90
  -4  -5   2  116.19   19.50
   3   5  -2  204.38   20.90
  -3  -5   2  201.88   21.20
  -3  -5   2  225.48   21.00
  -3  -5   2  199.68   21.90
   2   5  -2 1422.96   46.20
  -2  -5   2 1427.66   44.90
  -2  -5   2 1425.96   47.80
  -2  -5   2 1383.56   46.80
   1   5  -2  499.75   25.90
  -1  -5   2  477.65   26.40
  -1  -5   2  504.45   23.20
  -1  -5   2  519.55   25.60
   0   5  -2   67.99   12.30
   0  -5   2   25.70    7.40
   0  -5   2   26.60   11.10
   0  -5   2   37.80   11.60
  -1   5  -2 1583.34   45.20
   1  -5   2 1605.94   48.10
   1  -5   2 1626.74   40.90
   1  -5   2 1559.44   47.90
  -2   5  -2 1477.25   43.20
  -2   5  -2 1465.85   42.30
   2  -5   2 1514.35   38.60
   2  -5   2 1505.45   47.10
  -3   5  -2  100.89   14.50
  -3   5  -2  103.29   13.90
   3  -5   2   59.19   12.70
   3  -5   2  107.29   11.50
  -4   5  -2  838.62   29.10
  -4   5  -2  938.11   34.70
  -5   5  -2  868.11   29.60
  -5   5  -2  871.71   35.70
  -6   5  -2  179.88   14.90
  -6   5  -2  178.98   21.30
  -7   5  -2   64.39   15.90
  -7   5  -2   55.89    9.80
  -8   5  -2  436.46   31.80
  -8   5  -2  457.35   35.00
  -9   5  -2  155.88   24.80
  -9   5  -2  182.88   30.60
 -10   5  -2    5.10   14.10
 -10   5  -2   13.60   18.00
 -11   5  -2  249.68   31.10
 -11   5  -2  149.29   29.70
  -9  -4   2   37.90   19.50
  -9  -4   2    4.30   15.90
  -9  -4   2   31.80   19.80
  -8  -4   2   55.39   19.50
  -8  -4   2  108.69   22.70
  -8  -4   2   73.39   21.10
  -7  -4   2  405.66   35.00
  -7  -4   2  423.96   33.50
  -7  -4   2  415.36   34.30
  -6  -4   2  276.27   28.30
  -6  -4   2  276.17   28.00
  -6  -4   2  287.57   27.80
   5   4  -2   23.20   11.90
  -5  -4   2   24.10   12.60
  -5  -4   2   36.30   13.80
  -5  -4   2   14.00   12.50
   4   4  -2  678.53   31.90
  -4  -4   2  701.43   18.70
  -4  -4   2  711.23   34.00
  -4  -4   2  710.43   34.70
  -4  -4   2  752.62   34.80
   3   4  -2  848.82   33.10
   3   4  -2  830.52   20.50
  -3  -4   2  845.22   34.40
  -3  -4   2  834.22   33.70
  -3  -4   2  754.32   33.20
   2   4  -2   11.90    9.00
   2   4  -2    2.60    4.60
  -2  -4   2    2.00    8.50
  -2  -4   2   11.00    9.10
  -2  -4   2    0.30    7.30
   1   4  -2  841.62   30.60
   1   4  -2  838.72   21.60
  -1  -4   2  849.22   30.80
  -1  -4   2  826.02   31.10
  -1  -4   2  804.92   28.10
   0   4  -2  967.20   32.20
   0  -4   2  980.40   32.40
   0  -4   2 1047.70   29.50
   0  -4   2 1002.80   33.50
  -1   4  -2   20.90    8.10
   1  -4   2   16.30    8.20
   1  -4   2   -0.20    7.90
   1  -4   2    6.00    6.20
  -2   4  -2  334.57   18.00
  -2   4  -2  318.47   17.00
   2  -4   2  359.36   16.30
   2  -4   2  323.97   21.50
  -3   4  -2 2059.59   50.39
  -3   4  -2 2122.79   54.39
   3  -4   2 2034.90   49.70
   3  -4   2 2093.39   57.49
  -4   4  -2  577.44   21.30
  -4   4  -2  595.04   26.80
  -5   4  -2  400.86   17.60
  -5   4  -2  392.06   24.40
  -6   4  -2  812.72   26.20
  -6   4  -2  787.62   34.40
  -7   4  -2  148.89   22.10
  -7   4  -2  154.48   19.30
  -7   4  -2  154.68   12.90
  -8   4  -2   19.00   14.40
  -8   4  -2   11.30   11.80
  -9   4  -2  350.16   35.60
  -9   4  -2  382.36   30.20
 -10   4  -2  201.38   33.30
 -10   4  -2  199.28   27.00
 -11   4  -2   22.00   19.00
 -11   4  -2   -7.70   12.70
 -11   4  -2   15.60   16.90
 -10  -3   2   67.69   21.80
 -10  -3   2   41.70   20.60
 -10  -3   2   11.20   19.60
  -9  -3   2  224.28   34.20
  -9  -3   2  259.97   33.90
  -9  -3   2  335.87   35.10
  -8  -3   2  172.28   27.50
  -8  -3   2  155.18   26.50
  -8  -3   2  118.59   22.80
  -7  -3   2   41.90   15.80
  -7  -3   2   27.00   15.50
  -7  -3   2   33.30   15.10
  -6  -3   2  687.63   35.90
  -6  -3   2  674.13   33.10
  -6  -3   2  730.33   37.60
  -5  -3   2  534.95   17.80
  -5  -3   2  509.95   29.60
  -5  -3   2  557.54   31.20
   4   3  -2  118.59    7.40
   4   3  -2  101.59   15.80
  -4  -3   2  107.79   16.70
  -4  -3   2  117.19    7.90
  -4  -3   2  118.99   17.70
  -4  -3   2  110.59   17.70
   3   3  -2 1108.79   24.00
   3   3  -2 1119.79   36.80
  -3  -3   2 1019.50   36.90
  -3  -3   2 1062.29   36.30
  -3  -3   2 1111.09   38.10
  -3  -3   2 1120.99   24.10
   2   3  -2  740.13   17.10
   2   3  -2  698.33   26.30
   2   3  -2  699.43   16.10
  -2  -3   2  681.33   27.30
  -2  -3   2  644.74   26.20
  -2  -3   2  756.92   28.60
   1   3  -2   50.39    8.90
  -1  -3   2   48.80    9.50
  -1  -3   2   62.29   11.00
  -1  -3   2   32.20    8.40
   0   3  -2  213.48   14.80
   0  -3   2  200.98   12.80
   0  -3   2  203.58   16.00
   0  -3   2  176.58   13.60
  -1   3  -2 2182.58   51.09
  -1   3  -2 2199.88   50.79
   1  -3   2 2291.77   54.99
   1  -3   2 2230.88   51.29
  -2   3  -2 1174.88   31.10
  -2   3  -2 1177.48   33.40
   2  -3   2 1189.28   31.80
   2  -3   2 1189.98   36.40
  -3   3  -2   26.70    6.10
  -3   3  -2   18.20    8.50
   3  -3   2   19.60    7.40
  -4   3  -2 1929.21   53.19
  -4   3  -2 1982.90   45.10
  -5   3  -2  539.25   18.70
  -5   3  -2  548.85   25.90
  -6   3  -2   20.00    6.10
  -6   3  -2   26.30   10.70
  -6   3  -2   17.80   12.10
  -7   3  -2  509.65   19.60
  -7   3  -2  533.55   30.10
  -7   3  -2  502.75   33.70
  -8   3  -2  563.04   32.30
  -8   3  -2  507.15   37.80
  -9   3  -2    8.10   12.70
  -9   3  -2   18.60   17.70
 -10   3  -2   66.49   17.10
 -10   3  -2   44.30   20.20
 -10   3  -2   88.49   21.40
 -11   3  -2  163.28   27.20
 -11   3  -2  132.39   27.50
 -11   3  -2  232.98   31.40
 -10  -2   2   70.69   23.10
 -10  -2   2  128.79   24.80
 -10  -2   2  131.19   27.10
  -9  -2   2    1.80   15.50
  -9  -2   2    0.60   16.00
  -9  -2   2   19.50   16.60
  -8  -2   2  319.27   31.10
  -8  -2   2  270.37   29.20
  -7  -2   2  598.74   35.10
  -7  -2   2  674.23   37.60
  -7  -2   2  725.83   38.70
  -6  -2   2  -12.00    5.60
  -6  -2   2   -9.20    9.10
  -6  -2   2    9.80   10.60
  -5  -2   2 2132.79   62.59
  -5  -2   2 2283.97   50.79
  -5  -2   2 2099.89   62.99
   4   2  -2 2137.29   46.60
  -4  -2   2 2165.88   47.00
  -4  -2   2 2085.39   58.09
  -4  -2   2 2228.98   59.69
   3   2  -2  583.94   23.90
   3   2  -2  572.24   15.70
  -3  -2   2  585.64   14.90
  -3  -2   2  599.44   26.20
  -3  -2   2  559.34   24.40
  -3  -2   2  589.84   23.80
   2   2  -2  437.86   12.10
   2   2  -2  433.46   19.70
  -2  -2   2  399.26   18.10
  -2  -2   2  404.96   19.90
  -2  -2   2  387.66   19.80
   1   2  -2  619.24   22.20
   1   2  -2  632.24   14.30
  -1  -2   2  632.14   20.40
  -1  -2   2  671.43   22.40
  -1  -2   2  618.54   22.70
   0   2  -2 2360.86   51.69
   0   2  -2 2342.77   48.50
   0  -2   2 2218.78   50.69
   0  -2   2 2350.16   52.99
   0  -2   2 2345.87   51.29
  -1   2  -2 2061.29   46.60
  -1   2  -2 2063.19   44.90
   1  -2   2 2019.50   47.50
   1  -2   2 2090.69   49.00
  -2   2  -2  927.11   27.20
  -2   2  -2  903.71   22.40
   2  -2   2  873.51   26.40
   2  -2   2  872.01   22.20
  -3   2  -2 1144.19   26.60
  -3   2  -2 1124.39   33.90
   3  -2   2 1169.98   27.10
   3  -2   2 1111.09   33.90
  -4   2  -2    8.70    9.60
  -4   2  -2   10.60    8.00
  -4   2  -2    9.30    4.40
  -5   2  -2  590.54   26.90
  -5   2  -2  635.94   18.80
  -5   2  -2  603.04   31.60
  -6   2  -2  894.91   25.00
  -6   2  -2  925.01   35.50
  -6   2  -2  828.22   39.60
  -7   2  -2   29.60    6.80
  -7   2  -2   26.50   14.10
  -7   2  -2   20.10   10.60
  -8   2  -2  349.67   31.40
  -8   2  -2  314.87   25.80
  -9   2  -2  252.27   32.40
  -9   2  -2  221.98   25.30
  -9   2  -2  248.28   29.80
 -10   2  -2  107.19   22.60
 -10   2  -2   75.59   22.00
 -10   2  -2   50.39   16.70
 -11   2  -2    4.30   17.50
 -11   2  -2   11.20   17.30
 -11   2  -2   -2.30   14.70
 -11  -1   2  -24.40   14.00
 -11  -1   2   -5.60   16.90
 -11  -1   2    3.50   16.30
 -10  -1   2  310.17   36.10
 -10  -1   2  251.97   32.50
 -10  -1   2  305.17   35.50
  -9  -1   2  338.77   32.90
  -9  -1   2  321.67   34.00
  -8  -1   2   77.19   18.80
  -8  -1   2   79.89   17.90
  -7  -1   2  362.86   28.20
  -7  -1   2  321.47   19.00
  -7  -1   2  264.57   24.30
  -6  -1   2  826.12   27.30
  -6  -1   2  786.32   36.20
  -6  -1   2  871.31   37.60
   5   1  -2  119.69   11.10
  -5  -1   2  164.78   11.20
  -5  -1   2  127.19   15.60
  -5  -1   2  142.39   16.40
   4   1  -2  264.97   12.80
  -4  -1   2  253.87   12.00
  -4  -1   2  241.28   18.30
  -4  -1   2  259.87   18.10
   3   1  -2 3966.10   79.69
  -3  -1   2 3891.31   86.09
  -3  -1   2 3834.02   86.79
  -3  -1   2 3985.40   77.79
   2   1  -2 1137.89   26.60
  -2  -1   2 1121.39   31.20
  -2  -1   2 1172.98   33.20
  -2  -1   2 1131.59   23.50
  -2  -1   2 1145.79   29.60
  -2  -1   2 1161.88   27.10
   1   1  -2   16.70    3.10
   1   1  -2    9.70    6.70
   1   1  -2   14.60    4.90
  -1  -1   2   22.40    6.00
  -1  -1   2   12.10    4.80
  -1  -1   2   13.70    2.70
  -1  -1   2   13.20    6.60
   0   1  -2 1944.11   43.80
   0   1  -2 1945.31   41.90
   0   1  -2 1993.00   41.30
   0  -1   2 1982.50   44.10
   0  -1   2 1942.71   41.10
   0  -1   2 1947.91   41.90
   0  -1   2 2059.59   43.70
  -1   1  -2  277.87    9.10
   1  -1   2  293.07    9.10
   1  -1   2  243.68   14.90
  -2   1  -2  135.09   11.20
  -2   1  -2  108.99    4.90
   2  -1   2   96.19   11.40
  -3   1  -2  947.91   29.50
  -3   1  -2  995.00   34.00
  -3   1  -2 1000.00   21.50
  -4   1  -2 2018.50   42.90
  -4   1  -2 2022.60   58.69
  -4   1  -2 2046.00   53.09
  -4   1  -2 2029.30   42.80
  -5   1  -2  359.16   26.00
  -5   1  -2  366.66   21.40
  -6   1  -2  584.14   27.70
  -6   1  -2  558.04   32.70
  -7   1  -2 1238.28   51.99
  -7   1  -2 1258.17   44.80
  -7   1  -2 1240.98   35.90
  -8   1  -2  178.48   28.00
  -8   1  -2  165.48   25.50
  -8   1  -2  236.28   23.30
  -9   1  -2   -4.50   12.90
  -9   1  -2    6.40   11.70
  -9   1  -2  -12.30   12.80
 -10   1  -2  193.98   31.30
 -10   1  -2  192.38   34.00
 -10   1  -2  165.98   25.70
 -11   1  -2  141.59   27.80
 -11   1  -2  140.59   28.70
 -11   0   2  225.58   33.20
 -11   0   2  200.68   32.70
 -11   0   2  205.78   35.40
 -10   0   2   12.90   15.30
 -10   0   2   30.60   16.50
  -9   0   2  157.48   25.60
  -9   0   2  200.28   28.40
  -8   0   2  806.62   41.30
  -8   0   2  860.01   32.90
  -8   0   2  844.02   42.80
  -7   0   2  123.29   19.30
  -7   0   2  154.78   15.20
  -7   0   2  145.89   20.70
   6   0  -2  206.48   15.90
  -6   0   2  244.78   21.20
  -6   0   2  222.88   15.10
  -6   0   2  206.88   19.70
   5   0  -2 1412.66   39.40
  -5   0   2 1406.06   37.60
  -5   0   2 1464.85   45.10
  -5   0   2 1518.85   45.60
   4   0  -2 2100.99   49.50
  -4   0   2 2040.10   47.40
  -4   0   2 2063.29   53.69
  -4   0   2 2084.89   53.59
   3   0  -2   36.50    6.80
  -3   0   2   28.50    7.40
  -3   0   2   22.90    7.40
  -3   0   2   26.50    5.30
   2   0  -2 4093.49   82.49
  -2   0   2 3963.80   85.39
  -2   0   2 4003.30   81.79
  -2   0   2 4152.28   83.29
   1   0  -2 2568.14   55.59
   1   0  -2 2636.04   52.69
   1   0  -2 2550.24   53.09
   1   0  -2 2689.13   54.89
  -1   0   2 2654.33   53.29
  -1   0   2 2665.33   55.79
  -1   0   2 2619.04   50.39
  -1   0   2 2662.43   52.69
  -1   0   2 2670.93   54.89
   0   0  -2  226.48   10.50
   0   0  -2  188.58   11.80
   0   0  -2  205.28    9.00
   0   0  -2  222.08    8.50
   0   0   2  223.48   11.90
   0   0   2  208.88    8.00
   0   0   2  205.78   10.20
   0   0   2  199.68    8.80
  -1   0  -2    7.00    6.50
  -1   0  -2   14.60    7.00
   1   0   2   10.60    6.20
   1   0   2   13.80    2.50
  -2   0  -2 1458.15   37.00
  -2   0  -2 1424.46   28.70
  -2   0  -2 1392.66   39.60
  -3   0  -2 1361.26   29.50
  -3   0  -2 1358.26   41.60
  -3   0  -2 1384.46   37.70
  -4   0  -2   57.59   11.90
  -4   0  -2   52.09    9.70
  -5   0  -2 1313.67   47.70
  -5   0  -2 1245.28   40.20
  -6   0  -2  479.35   30.70
  -6   0  -2  442.86   25.50
  -6   0  -2  483.75   29.80
  -7   0  -2   46.80   12.80
  -7   0  -2   46.20   15.40
  -7   0  -2   61.19   15.90
  -8   0  -2  482.85   34.20
  -8   0  -2  553.34   32.10
  -8   0  -2  452.15   36.20
  -9   0  -2  236.48   32.80
  -9   0  -2  241.48   28.50
  -9   0  -2  282.77   27.40
 -10   0  -2   -5.20   14.00
 -10   0  -2   13.00   19.60
 -11   0  -2   92.79   26.50
 -11   0  -2   94.89   24.10
 -11   1   2  129.59   25.70
 -11   1   2  102.29   23.20
 -11   1   2  132.79   26.30
 -10   1   2  465.95   38.00
 -10   1   2  460.75   36.60
  -9   1   2  204.08   25.70
  -9   1   2  197.58   20.70
  -9   1   2  156.48   25.10
  -8   1   2   40.30   10.20
  -8   1   2   43.50   14.00
  -8   1   2   34.30   13.50
   7  -1  -2  650.33   28.40
  -7   1   2  550.54   31.30
  -7   1   2  580.04   32.50
  -7   1   2  659.83   27.50
   6  -1  -2  477.05   23.80
  -6   1   2  516.75   26.90
  -6   1   2  495.05   22.20
  -6   1   2  507.65   27.50
   5  -1  -2    2.40    6.60
  -5   1   2    0.30    5.50
  -5   1   2    6.80    8.10
  -5   1   2   11.00    7.50
   4  -1  -2  450.75   19.40
  -4   1   2  441.66   18.10
  -4   1   2  439.96   19.50
  -4   1   2  450.85   20.90
   3  -1  -2 1247.68   33.40
  -3   1   2 1232.78   34.20
  -3   1   2 1283.07   33.00
   2  -1  -2    0.60    6.60
  -2   1   2    2.70    5.40
  -2   1   2    6.90    4.70
   1  -1  -2  598.24   18.20
   1  -1  -2  607.84   16.50
   1  -1  -2  609.94   16.90
   1  -1  -2  599.04   18.00
  -1   1   2  614.54   16.80
  -1   1   2  612.24   16.90
   0  -1  -2 1440.06   34.30
   0  -1  -2 1534.55   35.20
   0  -1  -2 1471.15   33.10
   0  -1  -2 1514.05   35.20
   0   1   2 1500.45   34.80
   0   1   2 1492.45   33.30
   0   1   2 1460.25   34.10
  -1  -1  -2 3094.49   59.69
  -1  -1  -2 2833.82   65.49
  -1  -1  -2 2838.02   63.39
   1   1   2 3008.60   59.59
   1   1   2 2896.41   64.09
  -2  -1  -2   13.90    4.80
  -2  -1  -2   16.80    9.00
  -2  -1  -2    9.00    6.80
  -2  -1  -2   12.90    7.00
   2   1   2   11.60    4.80
  -3  -1  -2 1912.61   50.69
  -3  -1  -2 1939.21   54.69
  -3  -1  -2 1801.82   48.40
   3   1   2 1931.41   43.00
  -4  -1  -2  587.04   30.80
  -4  -1  -2  548.15   24.50
  -4  -1  -2  554.84   25.90
  -5  -1  -2   39.00   10.10
  -5  -1  -2   32.10   12.30
  -5  -1  -2   49.30   13.10
  -6  -1  -2  644.44   30.60
  -6  -1  -2  632.44   34.80
  -6  -1  -2  625.84   37.80
  -7  -1  -2  797.32   40.90
  -7  -1  -2  672.63   33.90
  -7  -1  -2  668.03   42.50
  -8  -1  -2   62.59   15.20
  -8  -1  -2   85.49   21.60
  -8  -1  -2   51.89   17.30
  -9  -1  -2  197.58   33.60
  -9  -1  -2  126.19   23.50
 -10  -1  -2  247.28   35.50
 -10  -1  -2  266.57   38.80
 -12   2   2  131.19   25.60
 -12   2   2  170.88   29.40
 -12   2   2  207.88   34.60
 -11   2   2  142.89   26.80
 -11   2   2  126.49   24.10
 -10   2   2   20.10   14.60
 -10   2   2   17.10   11.60
 -10   2   2   16.00   15.20
  -9   2   2  355.76   25.00
  -9   2   2  346.97   23.60
  -9   2   2  316.87   31.20
  -9   2   2  314.17   29.00
   8  -2  -2  266.77   22.70
  -8   2   2  310.27   25.80
  -8   2   2  269.97   26.10
  -8   2   2  293.37   21.70
   7  -2  -2   73.79   13.70
  -7   2   2   58.69   13.20
  -7   2   2   64.89   14.60
  -7   2   2   58.99   11.40
   6  -2  -2  862.71   33.10
  -6   2   2  871.51   35.80
  -6   2   2  873.11   31.40
   5  -2  -2 1074.19   35.10
  -5   2   2 1038.20   33.30
   4  -2  -2  391.96   19.70
  -4   2   2  408.76   19.10
   3  -2  -2   66.29    9.90
  -3   2   2   69.89   11.00
  -3   2   2   72.19    9.70
   2  -2  -2 2705.43   55.39
   2  -2  -2 2601.14   59.59
  -2   2   2 2704.83   55.59
  -2   2   2 2606.44   55.29
  -2   2   2 2766.12   60.19
   1  -2  -2  337.67   10.90
   1  -2  -2  313.67   15.70
   1  -2  -2  346.67   11.90
   1  -2  -2  338.67   14.90
  -1   2   2  351.76   10.20
  -1   2   2  348.67   12.20
   0  -2  -2 3049.09   65.99
   0  -2  -2 2964.20   63.89
   0  -2  -2 3149.68   62.89
   0  -2  -2 3045.20   68.09
   0  -2  -2 2944.61   63.59
   0   2   2 3047.90   65.09
   0   2   2 3234.18   62.89
   0   2   2 3037.30   63.89
  -1  -2  -2 6314.17  126.99
  -1  -2  -2 6264.17  131.69
  -1  -2  -2 6284.07  127.49
   1   2   2 6376.06  125.99
  -2  -2  -2 3107.09   70.69
  -2  -2  -2 3114.89   76.09
  -2  -2  -2 3135.39   71.99
   2   2   2 3228.58   67.99
  -3  -2  -2   23.80    8.50
  -3  -2  -2   18.30   10.70
  -3  -2  -2   33.00    8.90
   3   2   2   23.60    7.20
  -4  -2  -2  683.43   27.60
  -4  -2  -2  704.23   34.20
  -4  -2  -2  701.23   31.30
   4   2   2  668.33   24.30
  -5  -2  -2  656.33   36.00
  -5  -2  -2  716.63   34.10
  -5  -2  -2  706.23   30.00
   5   2   2  639.74   25.30
  -6  -2  -2   36.60   13.90
  -6  -2  -2   45.40   17.60
  -6  -2  -2   40.10   12.40
  -7  -2  -2   34.10   12.80
  -7  -2  -2   36.70   16.00
  -7  -2  -2   16.60   16.50
  -8  -2  -2  272.47   29.10
  -8  -2  -2  276.97   34.80
  -8  -2  -2  277.47   25.70
  -9  -2  -2   82.79   22.10
  -9  -2  -2   94.69   23.90
 -10  -2  -2   -2.60   20.80
 -10  -2  -2   32.30   19.60
 -12   3   2   -1.90   15.20
 -12   3   2  -34.40   13.90
 -12   3   2    4.90   15.20
 -11   3   2  292.77   27.10
 -11   3   2  314.47   33.90
 -11   3   2  329.97   35.60
 -10   3   2  361.76   32.40
 -10   3   2  361.86   26.90
 -10   3   2  286.47   33.10
  -9   3   2    3.00    9.90
  -9   3   2   19.50   10.10
  -9   3   2   23.10   13.30
  -9   3   2   11.30   10.30
   8  -3  -2  219.68   22.00
  -8   3   2  253.27   23.40
  -8   3   2  287.07   22.00
  -8   3   2  304.97   27.00
  -8   3   2  261.07   19.90
   7  -3  -2  665.93   31.70
  -7   3   2  670.33   28.90
  -7   3   2  730.23   30.80
  -7   3   2  658.73   34.50
   6  -3  -2  225.88   19.80
  -6   3   2  210.18   17.30
  -6   3   2  178.38   15.40
   5  -3  -2  229.08   17.30
  -5   3   2  216.58   15.40
   4  -3  -2 1308.37   39.10
  -4   3   2 1274.87   37.60
   3  -3  -2 1012.10   32.10
  -3   3   2 1024.20   26.00
  -3   3   2  999.10   31.10
   2  -3  -2    1.30    6.80
   2  -3  -2   -3.90    6.90
   2  -3  -2   -2.90    5.20
  -2   3   2   -8.40    6.40
  -2   3   2    0.10    5.00
  -2   3   2   -2.90    3.00
   1  -3  -2 2237.78   52.09
   1  -3  -2 2341.57   47.10
   1  -3  -2 2321.87   49.20
   1  -3  -2 2275.97   55.49
  -1   3   2 2236.38   48.50
  -1   3   2 2218.08   53.29
   0  -3  -2 3327.97   73.59
   0  -3  -2 3316.37   71.79
   0  -3  -2 3446.86   70.99
   0  -3  -2 3484.25   78.19
   0   3   2 3366.16   74.29
  -1  -3  -2   15.20    5.30
  -1  -3  -2   26.10    9.90
  -1  -3  -2    4.40    6.60
  -1  -3  -2   19.00    7.30
   1   3   2   18.80    7.60
  -2  -3  -2 2533.95   61.89
  -2  -3  -2 2515.65   53.09
  -2  -3  -2 2500.85   66.89
  -2  -3  -2 2407.36   58.79
   2   3   2 2383.86   58.29
  -3  -3  -2  921.81   34.60
  -3  -3  -2  905.71   30.90
  -3  -3  -2  940.01   38.20
   3   3   2  940.21   30.80
  -4  -3  -2   17.90   12.70
  -4  -3  -2    3.30    8.20
  -4  -3  -2   16.40   10.60
   4   3   2    6.50    7.90
  -5  -3  -2   89.59   14.00
  -5  -3  -2  117.19   18.60
  -5  -3  -2   94.59   19.40
   5   3   2   82.99   14.20
  -6  -3  -2  529.15   38.80
  -6  -3  -2  505.85   28.30
  -6  -3  -2  543.35   34.50
  -7  -3  -2  321.27   31.40
  -7  -3  -2  313.97   25.60
  -7  -3  -2  301.37   35.20
  -8  -3  -2   -0.40   15.30
  -8  -3  -2    9.00   18.30
  -9  -3  -2   93.39   23.20
  -9  -3  -2  247.58   38.20
 -12   4   2  163.28   27.80
 -12   4   2  186.88   33.70
 -12   4   2  171.08   29.30
 -11   4   2   42.20   19.10
 -11   4   2   51.79   15.40
 -11   4   2   48.90   17.70
 -10   4   2   60.99   18.40
 -10   4   2   67.49   15.60
 -10   4   2   59.89   16.40
  -9   4   2  368.76   27.80
  -9   4   2  346.57   32.80
  -9   4   2  379.26   24.50
   8  -4  -2  373.06   27.10
  -8   4   2  291.27   24.60
  -8   4   2  317.17   28.40
  -8   4   2  329.67   22.20
   7  -4  -2  186.68   20.90
  -7   4   2  168.68   18.40
  -7   4   2  174.08   17.00
   6  -4  -2  854.81   35.60
  -6   4   2  949.21   33.50
   5  -4  -2  946.61   34.70
  -5   4   2  791.62   30.70
   4  -4  -2   29.40    9.40
  -4   4   2   37.80    9.50
  -4   4   2   38.70    6.30
   3  -4  -2  899.91   31.60
  -3   4   2  968.50   31.80
  -3   4   2  932.31   21.60
   2  -4  -2 2396.96   62.69
   2  -4  -2 2598.44   57.59
   2  -4  -2 2605.64   60.39
  -2   4   2 2528.85   61.29
   1  -4  -2  183.48    9.20
   1  -4  -2  203.68   17.80
   1  -4  -2  171.38   12.50
   1  -4  -2  185.88   13.20
  -1   4   2  166.38   13.90
   0  -4  -2 1254.97   41.50
   0  -4  -2 1276.77   35.40
   0  -4  -2 1292.17   32.90
   0  -4  -2 1257.27   35.80
   0   4   2 1265.37   37.60
  -1  -4  -2 1339.57   44.80
  -1  -4  -2 1292.77   31.90
  -1  -4  -2 1315.77   38.70
  -1  -4  -2 1282.77   37.10
   1   4   2 1291.17   39.00
  -2  -4  -2   14.40    8.60
  -2  -4  -2   20.60   12.20
  -2  -4  -2   18.50    4.80
  -2  -4  -2   15.20    7.70
   2   4   2   36.90    9.70
  -3  -4  -2  474.65   26.30
  -3  -4  -2  506.75   30.90
  -3  -4  -2  488.75   14.90
  -3  -4  -2  474.55   22.80
   3   4   2  483.45   23.80
  -4  -4  -2  350.16   12.50
  -4  -4  -2  334.37   20.90
  -4  -4  -2  381.46   30.60
  -4  -4  -2  380.26   26.00
   4   4   2  369.56   22.60
  -5  -4  -2  375.16   31.30
  -5  -4  -2  401.36   29.30
  -5  -4  -2  351.66   22.90
   5   4   2  386.66   24.60
  -6  -4  -2    7.30   15.80
  -6  -4  -2   35.10   11.50
  -6  -4  -2   29.10   14.40
   6   4   2   15.90   10.70
  -7  -4  -2  180.38   32.20
  -7  -4  -2  148.29   25.90
  -8  -4  -2  186.08   31.60
  -8  -4  -2  185.78   29.10
  -9  -4  -2   -9.60   14.50
  -9  -4  -2  -14.60   17.00
 -12   5   2   25.40   14.50
 -12   5   2   54.69   19.90
 -12   5   2   60.69   23.60
 -12   5   2   14.30   14.90
 -11   5   2  239.88   32.90
 -11   5   2  288.07   29.60
 -11   5   2  310.07   30.10
 -11   5   2  289.97   28.90
 -10   5   2  172.88   28.50
 -10   5   2  210.08   23.80
   9  -5  -2   12.20   13.00
  -9   5   2    9.30   11.30
  -9   5   2  -14.70   11.30
  -9   5   2   14.00    9.10
   8  -5  -2  700.63   37.00
  -8   5   2  682.03   31.80
  -8   5   2  708.53   35.80
   7  -5  -2  116.89   18.50
  -7   5   2  130.19   16.60
  -7   5   2  144.99   19.40
   6  -5  -2   -3.70    9.10
  -6   5   2    7.60    8.60
   5  -5  -2  529.05   27.20
  -5   5   2  458.05   18.30
  -5   5   2  458.65   24.40
   4  -5  -2  908.41   34.00
  -4   5   2  845.12   21.50
  -4   5   2  789.92   30.90
  -4   5   2  849.72   21.40
   3  -5  -2  398.96   19.60
   3  -5  -2  371.56   21.40
  -3   5   2  448.46   23.10
   2  -5  -2  693.43   31.00
   2  -5  -2  651.73   25.10
   2  -5  -2  691.93   26.10
  -2   5   2  683.93   27.40
   1  -5  -2 1737.43   44.30
   1  -5  -2 1758.32   45.50
   1  -5  -2 1676.23   38.10
   1  -5  -2 1699.33   51.59
  -1   5   2 1723.03   48.60
   0  -5  -2  688.73   22.60
   0  -5  -2  683.23   25.90
   0  -5  -2  654.83   30.70
   0   5   2  675.83   28.80
  -1  -5  -2   18.10    7.60
  -1  -5  -2    5.90    4.90
  -1  -5  -2    9.20    8.70
  -1  -5  -2   14.20   11.30
   1   5   2   10.80    8.90
  -2  -5  -2  777.62   28.60
  -2  -5  -2  780.52   20.60
  -2  -5  -2  782.62   33.00
  -2  -5  -2  750.12   36.70
   2   5   2  775.62   31.40
  -3  -5  -2  173.68   16.70
  -3  -5  -2  175.68   22.70
  -3  -5  -2  163.78   20.20
   3   5   2  207.18   19.40
  -4  -5  -2   14.80    8.80
  -4  -5  -2   16.60   13.50
  -4  -5  -2   16.70   12.20
   4   5   2    5.20   11.00
  -5  -5  -2  795.82   46.60
  -5  -5  -2  820.62   33.50
  -5  -5  -2  870.01   43.40
   5   5   2  895.61   38.50
  -6  -5  -2  281.27   34.40
  -6  -5  -2  320.77   31.60
   6   5   2  352.06   28.70
  -7  -5  -2  -25.30   12.20
  -7  -5  -2    3.70   17.10
  -8  -5  -2   94.59   23.30
  -8  -5  -2   91.19   25.40
 -12   6   2  131.89   27.10
 -12   6   2  143.99   24.30
 -12   6   2   84.49   21.00
 -11   6   2   16.00   14.90
 -11   6   2  -15.60   15.00
 -10   6   2  206.08   21.90
 -10   6   2  221.88   26.90
 -10   6   2  217.48   24.20
 -10   6   2  220.48   31.50
   9  -6  -2  291.57   29.20
  -9   6   2  308.97   28.30
  -9   6   2  318.37   24.60
   8  -6  -2   69.69   17.30
  -8   6   2   40.50   12.40
  -8   6   2   43.90   14.10
   7  -6  -2  339.87   27.50
  -7   6   2  348.67   24.20
  -7   6   2  314.37   19.10
  -7   6   2  293.47   24.40
   6  -6  -2  884.61   38.90
  -6   6   2  808.12   26.80
  -6   6   2  770.32   33.60
   5  -6  -2  140.09   17.40
  -5   6   2  142.09    9.40
  -5   6   2  121.39   16.70
   4  -6  -2  106.69   16.50
  -4   6   2  122.59   17.00
   3  -6  -2  782.62   29.50
   3  -6  -2  805.32   34.80
   3  -6  -2  732.93   30.50
  -3   6   2  776.22   31.60
   2  -6  -2   65.29   11.00
   2  -6  -2   71.39   14.60
   2  -6  -2   57.39   10.90
  -2   6   2   63.49   13.00
   1  -6  -2  167.48   14.50
   1  -6  -2  159.18   10.00
   1  -6  -2  149.99   16.00
   1  -6  -2  183.78   21.40
  -1   6   2  184.18   18.70
   0  -6  -2  588.84   32.60
   0  -6  -2  536.75   20.60
   0  -6  -2  481.35   25.10
   0   6   2  585.34   28.90
  -1  -6  -2 1097.09   46.10
  -1  -6  -2 1115.59   39.70
  -1  -6  -2 1168.78   30.00
   1   6   2 1025.90   39.30
  -2  -6  -2   95.59    7.40
  -2  -6  -2   56.69   13.00
  -2  -6  -2   82.59   12.30
  -2  -6  -2   91.19   19.00
   2   6   2   74.59   14.20
  -3  -6  -2  200.68   22.90
  -3  -6  -2  207.28   17.90
  -3  -6  -2  255.87   29.10
   3   6   2  216.58   22.10
  -4  -6  -2  463.45   38.10
  -4  -6  -2  532.85   26.20
  -4  -6  -2  500.85   33.90
   4   6   2  495.75   30.40
  -5  -6  -2   20.50   14.80
  -5  -6  -2   29.20   19.20
   5   6   2   67.69   16.10
  -6  -6  -2   39.50   17.50
  -6  -6  -2   36.60   20.10
  -7  -6  -2  169.88   31.30
  -7  -6  -2  201.68   31.30
  -8  -6  -2   29.50   22.20
  -8  -6  -2   37.40   19.60
 -12   7   2  180.28   28.30
 -12   7   2  162.48   25.80
 -12   7   2  134.79   28.10
 -11   7   2  164.88   25.90
 -11   7   2  113.79   24.60
 -10   7   2   10.50   11.10
 -10   7   2    5.40   13.30
   9  -7  -2  148.59   25.50
  -9   7   2  128.39   22.10
  -9   7   2  117.19   20.00
   8  -7  -2  299.37   29.30
  -8   7   2  326.87   24.90
  -8   7   2  258.37   27.40
   7  -7  -2  241.48   26.00
  -7   7   2  260.57   23.20
   6  -7  -2   50.49   14.70
  -6   7   2   58.39   13.80
   5  -7  -2  942.71   40.20
  -5   7   2  946.51   38.80
   4  -7  -2  440.86   26.50
   4  -7  -2  436.86   25.20
  -4   7   2  510.85   28.20
   3  -7  -2  105.39   17.10
   3  -7  -2   96.79   14.20
   3  -7  -2  133.69   21.80
  -3   7   2  105.39   18.30
   2  -7  -2  480.55   23.70
   2  -7  -2  512.25   30.80
   2  -7  -2  460.95   25.80
  -2   7   2  594.24   30.40
   1  -7  -2  284.87   20.80
   1  -7  -2  296.67   18.00
   1  -7  -2  307.37   13.70
   1  -7  -2  335.77   27.70
  -1   7   2  304.17   24.30
   0  -7  -2   15.40   14.00
   0  -7  -2    3.10   10.10
   0  -7  -2   13.30    7.20
   0  -7  -2   23.20    7.40
   0   7   2   17.80   10.40
  -1  -7  -2  122.39   18.70
  -1  -7  -2  149.59   11.60
  -1  -7  -2  190.08   26.40
   1   7   2  188.48   21.80
  -2  -7  -2  418.86   29.90
  -2  -7  -2  391.06   34.20
   2   7   2  442.96   29.30
  -3  -7  -2   57.69   15.90
  -3  -7  -2   33.70   16.90
   3   7   2   49.90   16.20
  -4  -7  -2   80.79   23.30
  -4  -7  -2   93.99   19.50
   4   7   2   85.29   17.80
  -5  -7  -2  199.38   34.40
  -5  -7  -2  249.68   31.70
   5   7   2  262.47   28.30
  -6  -7  -2   72.49   21.60
  -6  -7  -2  135.39   27.80
  -7  -7  -2  -28.40   15.50
  -7  -7  -2   10.00   19.30
 -11   8   2   63.89   24.00
 -11   8   2   28.50   18.00
 -10   8   2  149.29   25.60
 -10   8   2  122.29   19.50
   9  -8  -2   56.49   17.60
  -9   8   2   82.99   18.80
  -9   8   2   88.59   17.30
   8  -8  -2   20.80   15.30
  -8   8   2   20.00   12.80
  -8   8   2   51.49   17.40
   7  -8  -2  466.35   33.50
  -7   8   2  480.45   30.40
   6  -8  -2  482.45   32.10
  -6   8   2  465.05   29.70
   5  -8  -2   21.90   12.30
  -5   8   2   -2.10   11.30
   4  -8  -2  427.36   27.70
   4  -8  -2  426.16   26.90
  -4   8   2  471.85   30.10
   3  -8  -2  402.86   26.50
   3  -8  -2  414.96   30.10
   3  -8  -2  347.27   24.00
  -3   8   2  421.06   29.10
   2  -8  -2   20.90   11.50
   2  -8  -2    2.50   12.70
   2  -8  -2    3.40    8.80
  -2   8   2   17.60   11.60
   1  -8  -2  234.58   18.10
   1  -8  -2  189.98   22.00
   1  -8  -2  184.58   26.60
  -1   8   2  226.68   24.70
   0  -8  -2  231.78   29.30
   0  -8  -2  221.88   23.60
   0  -8  -2  263.47   24.40
   0  -8  -2  208.68   15.90
   0   8   2  219.98   24.40
  -1  -8  -2   12.80    9.30
  -1  -8  -2   16.70   12.50
  -1  -8  -2   45.80   17.90
   1   8   2   52.39   16.50
  -2  -8  -2   31.00   16.00
  -2  -8  -2   37.00   14.90
  -2  -8  -2   70.79   14.30
   2   8   2   56.79   16.80
  -3  -8  -2  298.17   35.30
  -3  -8  -2  251.87   29.90
   3   8   2  262.67   28.60
  -4  -8  -2  259.37   32.30
  -4  -8  -2  283.97   30.80
   4   8   2  259.57   30.80
  -5  -8  -2   28.60   15.90
  -5  -8  -2  -16.70   13.60
  -5  -8  -2    1.70   20.50
   5   8   2   11.90   14.90
  -6  -8  -2  103.19   28.60
  -6  -8  -2   83.59   21.80
  -6  -8  -2   29.50   19.60
 -11   9   2   18.40   17.10
 -10   9   2   -8.20   14.50
 -10   9   2    6.00   12.70
  -9   9   2  185.08   28.40
  -9   9   2  147.09   22.70
   8  -9  -2  152.48   26.20
  -8   9   2  152.28   23.40
  -8   9   2  171.78   27.00
   7  -9  -2   22.00   13.90
  -7   9   2    0.60   12.90
   6  -9  -2  231.78   26.90
  -6   9   2  277.97   27.50
   5  -9  -2  490.75   31.80
  -5   9   2  486.95   32.90
   4  -9  -2   20.90   12.10
   4  -9  -2   20.70   12.80
  -4   9   2   22.50   14.30
   3  -9  -2  194.38   21.80
   3  -9  -2  192.78   25.70
   3  -9  -2  202.78   23.90
  -3   9   2  215.38   25.60
   2  -9  -2  374.26   33.90
   2  -9  -2  401.06   24.70
   2  -9  -2  358.06   28.60
  -2   9   2  401.16   31.60
   1  -9  -2  144.09   17.00
   1  -9  -2  169.68   28.60
   1  -9  -2  145.09   22.70
  -1   9   2  149.69   24.70
   0  -9  -2   25.80   14.20
   0  -9  -2   33.30   17.80
   0   9   2   45.40   16.40
  -1  -9  -2  206.18   33.80
  -1  -9  -2  234.38   27.20
   1   9   2  258.57   28.70
  -2  -9  -2   47.50   22.20
  -2  -9  -2   47.70   17.00
   2   9   2  100.49   20.90
  -3  -9  -2    1.40   18.40
  -3  -9  -2   -7.30   13.70
   3   9   2   24.40   16.50
  -4  -9  -2   82.99   25.10
  -4  -9  -2   62.49   20.00
   4   9   2  118.69   24.20
  -5  -9  -2   79.79   22.60
  -5  -9  -2   68.69   25.20
   5   9   2   70.29   27.60
 -10  10   2   54.19   20.90
 -10  10   2   66.79   19.30
  -9  10   2  -21.10   13.00
  -9  10   2    6.90   14.90
   8 -10  -2  108.49   22.80
  -8  10   2  141.79   24.20
  -8  10   2  100.49   20.90
   7 -10  -2  110.19   21.00
  -7  10   2  134.09   22.30
   6 -10  -2   37.00   16.20
  -6  10   2   13.20   14.10
   5 -10  -2   66.29   16.30
   5 -10  -2   54.19   16.30
  -5  10   2   53.69   18.20
   4 -10  -2  211.18   24.30
   4 -10  -2  205.18   23.40
  -4  10   2  327.77   29.70
   3 -10  -2   92.89   18.50
   3 -10  -2   92.89   16.80
   3 -10  -2  112.39   21.30
  -3  10   2  125.69   22.30
   2 -10  -2   64.99   17.30
   2 -10  -2   53.99   13.50
   2 -10  -2   80.49   20.00
  -2  10   2   78.69   18.90
   1 -10  -2  326.07   36.20
   1 -10  -2  390.86   31.70
  -1  10   2  360.06   30.90
   0 -10  -2  185.68   27.70
   0 -10  -2  266.47   35.60
   0  10   2  196.28   28.50
  -1 -10  -2   18.30   17.90
  -1 -10  -2   -2.20   14.50
   1  10   2   -9.00   14.40
  -2 -10  -2  145.99   29.10
  -2 -10  -2   71.09   20.30
   2  10   2  141.79   25.60
  -3 -10  -2  175.78   31.30
  -3 -10  -2   91.49   22.70
   3  10   2  132.99   25.80
  -4 -10  -2   22.90   19.30
  -4 -10  -2   13.10   21.10
   4  10   2   -4.90   16.50
 -10  11   2   54.59   23.30
 -10  11   2   51.29   17.20
  -9  11   2   71.39   22.30
  -9  11   2   93.69   21.50
  -8  11   2  -20.20   12.70
  -8  11   2   19.30   16.00
  -7  11   2   15.50   15.70
   6 -11  -2   70.59   19.20
  -6  11   2   86.69   21.30
   5 -11  -2   49.50   16.50
  -5  11   2   49.30   19.60
   4 -11  -2  -10.60   11.70
  -4  11   2   -4.70   14.60
   3 -11  -2  317.77   45.30
   3 -11  -2  360.06   38.70
  -3  11   2  267.87   32.40
   2 -11  -2  184.28   30.10
   2 -11  -2  147.49   24.90
  -2  11   2  175.98   27.00
   1 -11  -2    6.70   16.10
   1 -11  -2  -17.10   16.30
  -1  11   2    1.40   17.20
   0 -11  -2   93.39   25.60
   0 -11  -2   68.99   21.50
   0  11   2  110.79   24.60
  -1 -11  -2   90.29   22.50
  -1 -11  -2  114.49   25.70
   1  11   2  130.69   25.60
  -2 -11  -2   23.60   18.50
  -2 -11  -2   47.50   21.40
   2  11   2   33.40   19.80
  -8  12   2   75.49   21.10
  -8  12   2   86.99   21.90
  -7  12   2  120.59   23.90
  -6  12   2   12.70   17.50
  -5  12   2   51.49   21.30
  -4  12   2   60.59   21.50
   3 -12  -2    1.30   16.80
  -3  12   2   -5.40   15.20
   2 -12  -2   20.50   20.80
  -2  12   2    7.70   17.80
   1 -12  -2   78.99   24.20
  -1  12   2   62.79   22.70
   0 -12  -2  -14.80   18.80
   0  12   2   19.30   18.90
  -1 -12  -2    8.90   22.20
   1  12   2   43.40   21.10
  -7  13   2  101.29   24.50
  -6  13   2   48.10   20.20
  -5  13   2  -12.30   16.60
  -4  13   2    2.40   20.20
   3 -13  -2   21.10   21.70
  -3  13   2   26.80   21.00
   2 -13  -2   12.00   18.80
  -2  13   2    4.40   18.50
  -1  13  -3   32.90   19.60
   1 -13   3   40.50   23.50
  -2  13  -3    6.50   18.30
   2 -13   3   10.70   21.20
  -3  13  -3   15.60   19.90
   3 -13   3   32.00   21.40
  -4  13  -3   83.39   24.20
   4 -13   3   93.69   24.50
  -5  13  -3   80.89   23.80
  -5  13  -3   19.20   15.70
   5 -13   3   68.79   24.30
  -6  13  -3   31.90   17.30
  -6  13  -3  -31.20   15.00
   1  12  -3   31.60   21.50
  -1 -12   3   72.09   24.00
   0  12  -3   74.49   22.10
   0 -12   3   91.69   24.40
   0 -12   3   75.79   24.30
  -1  12  -3  -19.20   14.40
   1 -12   3   41.00   22.50
   1 -12   3    3.70   19.70
  -2  12  -3   34.70   20.70
   2 -12   3   36.40   20.60
  -3  12  -3   19.40   15.70
  -3  12  -3   57.29   20.40
   3 -12   3   67.89   23.30
  -4  12  -3   -5.70   11.90
  -4  12  -3   33.50   18.80
   4 -12   3   10.60   17.00
  -5  12  -3   85.49   22.80
  -5  12  -3   51.29   17.30
   5 -12   3   67.19   21.90
  -6  12  -3   97.39   23.20
  -6  12  -3  106.59   22.20
  -7  12  -3   24.00   17.60
  -7  12  -3   20.20   16.70
  -8  12  -3   42.10   18.30
   3  11  -3   69.39   23.40
  -3 -11   3   48.30   24.00
  -3 -11   3  113.69   27.30
   2  11  -3   72.49   23.30
  -2 -11   3   24.50   21.10
  -2 -11   3   57.59   23.30
   1  11  -3  -13.90   13.80
  -1 -11   3   -2.10   17.00
  -1 -11   3   -2.30   17.90
   0  11  -3  116.89   25.30
   0 -11   3   86.19   24.10
   0 -11   3   76.29   23.60
  -1  11  -3  156.18   25.70
   1 -11   3  210.98   33.60
   1 -11   3  189.28   32.90
  -2  11  -3    1.60   10.30
  -2  11  -3  -12.60   15.40
   2 -11   3   20.20   17.50
  -3  11  -3   57.59   15.50
  -3  11  -3   70.39   20.80
   3 -11   3   82.39   22.40
  -4  11  -3  206.08   25.70
  -4  11  -3  214.88   29.20
   4 -11   3  232.48   32.50
  -5  11  -3   64.29   19.60
  -5  11  -3   35.70   14.50
   5 -11   3   51.59   20.50
  -6  11  -3   22.60   15.90
  -6  11  -3   24.20   16.00
  -7  11  -3  173.28   27.50
  -7  11  -3  142.69   25.10
  -8  11  -3   56.99   18.30
  -9  11  -3   -6.50   17.30
   4  10  -3   58.89   21.40
  -4 -10   3   59.19   22.80
  -4 -10   3  127.29   26.20
   3  10  -3   13.40   17.30
  -3 -10   3    9.70   17.10
  -3 -10   3   -5.70   16.20
   2  10  -3  114.99   22.90
  -2 -10   3   85.09   24.00
  -2 -10   3  150.78   27.00
   1  10  -3  279.57   32.10
  -1 -10   3  273.27   33.60
  -1 -10   3  215.28   31.10
   0  10  -3   18.20   16.50
   0 -10   3   -9.30   14.90
   0 -10   3   17.90   15.80
  -1  10  -3   52.09   13.10
  -1  10  -3   94.39   21.00
   1 -10   3   97.09   21.80
   1 -10   3   59.59   19.40
  -2  10  -3  441.96   27.80
  -2  10  -3  474.05   36.10
   2 -10   3  436.96   37.20
  -3  10  -3  284.97   25.30
  -3  10  -3  234.28   28.60
   3 -10   3  322.77   34.60
  -4  10  -3    5.30   12.70
  -4  10  -3   44.80   16.90
   4 -10   3   32.40   16.90
  -5  10  -3  205.98   25.60
  -5  10  -3  204.08   25.30
   5 -10   3  212.68   32.80
  -6  10  -3  149.39   22.00
  -6  10  -3  101.79   19.90
  -7  10  -3   -4.70   12.80
  -7  10  -3    1.20   14.80
  -8  10  -3   63.49   19.30
  -9  10  -3  130.69   25.90
 -10  10  -3    8.50   18.80
   6   9  -3   76.79   22.10
  -6  -9   3   58.39   24.30
  -6  -9   3   32.50   21.60
  -6  -9   3   91.79   23.70
   5   9  -3   21.30   18.40
  -5  -9   3   29.30   16.20
  -5  -9   3   29.00   20.60
  -5  -9   3   -1.40   17.50
   4   9  -3  119.09   23.60
  -4  -9   3  139.09   25.40
  -4  -9   3  142.09   26.80
  -4  -9   3  125.49   25.20
   3   9  -3  233.08   30.60
  -3  -9   3  177.08   30.50
  -3  -9   3  161.58   26.90
  -3  -9   3  159.78   24.90
   2   9  -3   45.80   18.70
  -2  -9   3    8.60   16.00
  -2  -9   3   20.80   16.40
  -2  -9   3   62.29   14.90
   1   9  -3   89.19   20.10
  -1  -9   3   97.69   18.10
  -1  -9   3   86.79   20.50
  -1  -9   3  100.99   20.80
   0   9  -3  157.28   25.80
   0  -9   3  208.98   27.30
   0  -9   3  177.88   26.80
  -1   9  -3  200.88   25.90
  -1   9  -3  140.09   17.90
   1  -9   3  132.29   22.50
   1  -9   3  161.68   26.40
  -2   9  -3   30.20   14.70
  -2   9  -3   33.50   11.90
   2  -9   3   34.60   16.90
  -3   9  -3  642.74   33.30
  -3   9  -3  582.74   34.90
   3  -9   3  611.74   39.80
  -4   9  -3  302.27   25.90
  -4   9  -3  369.76   28.60
   4  -9   3  339.37   34.10
  -5   9  -3   24.40   14.00
  -5   9  -3   22.40   13.90
   5  -9   3   31.80   16.80
  -6   9  -3   70.99   16.40
  -6   9  -3   87.29   18.70
  -7   9  -3  129.79   21.30
  -7   9  -3  155.38   26.30
  -8   9  -3   43.20   18.30
  -9   9  -3  112.19   24.30
 -10   9  -3   70.99   21.80
  -7  -8   3   11.70   17.60
  -7  -8   3   12.20   19.50
  -7  -8   3   -7.00   17.40
   6   8  -3   44.70   19.00
  -6  -8   3   48.00   19.50
  -6  -8   3   36.50   18.40
  -6  -8   3   22.30   17.10
   5   8  -3  252.17   31.80
  -5  -8   3  235.08   30.10
  -5  -8   3  226.48   32.80
  -5  -8   3  231.08   33.50
   4   8  -3   19.10   16.10
  -4  -8   3   29.60   16.90
  -4  -8   3   48.00   18.00
  -4  -8   3   11.40   12.80
   3   8  -3   24.40   14.50
  -3  -8   3   10.40   15.90
  -3  -8   3   43.50   13.80
  -3  -8   3   24.50   16.00
   2   8  -3  524.35   35.20
  -2  -8   3  504.45   36.00
  -2  -8   3  469.75   29.60
  -2  -8   3  458.35   35.10
   1   8  -3  289.57   27.40
  -1  -8   3  282.67   22.30
  -1  -8   3  297.27   29.00
  -1  -8   3  284.07   28.90
   0   8  -3   18.90   14.20
   0  -8   3   -5.00    8.50
   0  -8   3  -33.30   11.10
   0  -8   3   -8.30   11.20
  -1   8  -3  366.56   28.10
  -1   8  -3  359.56   22.10
   1  -8   3  333.77   29.50
   1  -8   3  379.96   30.30
   1  -8   3  358.66   21.90
  -2   8  -3  336.97   26.70
  -2   8  -3  322.07   22.00
   2  -8   3  307.27   20.80
   2  -8   3  292.57   29.20
  -3   8  -3  -10.40   10.10
  -3   8  -3    5.10    9.60
   3  -8   3    8.50    7.30
   3  -8   3   26.70   15.00
  -4   8  -3  225.88   22.40
  -4   8  -3  226.68   22.90
   4  -8   3  205.08   27.20
  -5   8  -3  352.56   24.90
  -5   8  -3  301.97   26.60
  -6   8  -3   38.00   12.70
  -6   8  -3   32.60   14.20
  -7   8  -3   63.29   17.30
  -7   8  -3   69.19   13.90
  -8   8  -3  288.27   29.40
  -9   8  -3   47.40   18.20
 -10   8  -3   32.40   19.90
 -10   8  -3   21.80   18.10
  -7  -7   3  196.58   33.50
  -7  -7   3  194.78   33.70
  -7  -7   3  184.28   30.80
   6   7  -3   64.89   19.60
  -6  -7   3   18.50   17.20
  -6  -7   3   32.10   16.00
  -6  -7   3   48.90   18.50
   5   7  -3  118.59   22.70
  -5  -7   3   53.59   19.30
  -5  -7   3   77.59   20.10
  -5  -7   3   79.39   18.80
   4   7  -3  325.97   30.10
  -4  -7   3  268.17   27.00
  -4  -7   3  277.87   30.80
  -4  -7   3  345.97   30.90
   3   7  -3  302.17   28.70
  -3  -7   3  316.27   29.80
  -3  -7   3  298.47   26.50
  -3  -7   3  384.86   32.00
   2   7  -3   28.50   13.50
  -2  -7   3   18.70   10.30
  -2  -7   3    7.60   12.90
  -2  -7   3   11.60   12.40
   1   7  -3  404.56   28.60
  -1  -7   3  487.85   25.90
  -1  -7   3  538.95   32.90
  -1  -7   3  509.75   30.60
   0   7  -3  692.23   34.30
   0  -7   3  689.53   35.10
   0  -7   3  734.03   35.90
   0  -7   3  757.72   29.30
  -1   7  -3    1.80    7.20
  -1   7  -3   19.80   11.70
   1  -7   3   -5.50    7.10
   1  -7   3    5.10    9.90
   1  -7   3   -5.30   10.60
  -2   7  -3  609.14   30.40
  -2   7  -3  562.04   27.40
   2  -7   3  613.24   34.00
   2  -7   3  611.74   25.80
  -3   7  -3  445.36   25.30
  -3   7  -3  394.66   24.30
   3  -7   3  390.66   29.60
   3  -7   3  409.96   20.00
  -4   7  -3   48.20   12.30
  -4   7  -3   64.19   14.00
   4  -7   3   57.49   16.10
   4  -7   3   53.29    9.80
  -5   7  -3  151.48   18.00
  -5   7  -3   72.39   14.10
  -6   7  -3  528.55   33.40
  -6   7  -3  591.54   28.70
  -7   7  -3  278.37   28.30
  -7   7  -3  201.68   19.70
  -8   7  -3    2.10   13.50
  -9   7  -3  178.58   26.80
  -9   7  -3  174.88   29.90
 -10   7  -3  101.09   25.50
 -10   7  -3  145.49   26.40
 -11   7  -3   33.40   20.20
 -11   7  -3   45.10   19.50
  -8  -6   3   29.20   20.20
  -8  -6   3   88.09   22.10
  -8  -6   3   34.90   19.00
  -7  -6   3   15.90   16.30
  -7  -6   3    3.60   16.50
  -7  -6   3   20.10   16.20
   6   6  -3  241.98   29.70
  -6  -6   3  253.27   31.80
  -6  -6   3  192.48   28.60
  -6  -6   3  241.08   29.20
   5   6  -3  264.47   28.20
  -5  -6   3  299.97   31.30
  -5  -6   3  352.96   31.70
  -5  -6   3  293.57   28.70
   4   6  -3   -2.70   12.40
  -4  -6   3   -9.30   11.10
  -4  -6   3    0.00   10.70
  -4  -6   3   15.40   13.90
   3   6  -3  387.56   28.10
  -3  -6   3  350.66   28.60
  -3  -6   3  349.27   26.50
  -3  -6   3  314.47   26.20
   2   6  -3 1083.29   42.20
  -2  -6   3 1055.09   42.80
  -2  -6   3 1111.59   42.50
  -2  -6   3  952.60   38.80
   1   6  -3  213.18   20.90
  -1  -6   3  169.18   21.60
  -1  -6   3  186.18   20.00
  -1  -6   3  182.58   17.10
   0   6  -3  298.37   16.00
   0   6  -3  317.67   23.10
   0  -6   3  295.57   18.80
   0  -6   3  293.97   22.80
   0  -6   3  332.07   23.00
  -1   6  -3 1531.55   43.40
  -1   6  -3 1536.55   47.30
   1  -6   3 1565.24   49.50
   1  -6   3 1525.45   50.99
   1  -6   3 1568.64   43.70
  -2   6  -3  323.67   21.20
  -2   6  -3  309.77   20.00
   2  -6   3  279.07   18.30
   2  -6   3  333.67   25.60
  -3   6  -3  127.49   16.10
  -3   6  -3   98.49   14.60
   3  -6   3  108.69   13.00
   3  -6   3  114.89   20.10
  -4   6  -3  423.46   22.30
  -4   6  -3  407.06   24.90
   4  -6   3  418.66   20.70
   4  -6   3  390.06   26.80
  -5   6  -3  385.86   24.90
  -5   6  -3  317.07   20.40
  -6   6  -3    6.70    7.80
  -6   6  -3   -3.50    9.30
  -7   6  -3  358.36   20.80
  -7   6  -3  333.07   28.30
  -8   6  -3  429.26   32.00
  -9   6  -3   23.70   18.70
  -9   6  -3   15.20   14.00
 -10   6  -3  112.69   23.10
 -10   6  -3  101.99   26.20
 -11   6  -3  230.38   36.10
 -11   6  -3  273.47   33.70
  -9  -5   3   35.00   19.00
  -9  -5   3   38.30   18.70
  -9  -5   3    6.60   16.40
  -8  -5   3  272.47   34.50
  -8  -5   3  234.18   33.00
  -8  -5   3  283.67   34.40
  -7  -5   3  195.48   29.30
  -7  -5   3  220.48   30.70
  -7  -5   3  258.67   31.20
  -6  -5   3   21.20   14.60
  -6  -5   3   26.00   15.20
  -6  -5   3   19.00   14.10
   5   5  -3  180.08   23.30
  -5  -5   3  207.88   25.10
  -5  -5   3  187.48   23.90
  -5  -5   3  150.28   22.10
   4   5  -3  590.44   32.50
  -4  -5   3  633.84   33.90
  -4  -5   3  563.04   32.10
  -4  -5   3  495.65   31.00
   3   5  -3  232.28   20.10
  -3  -5   3  223.58   20.90
  -3  -5   3  190.28   19.80
  -3  -5   3  182.68   20.30
   2   5  -3  215.48   11.60
   2   5  -3  204.88    9.10
   2   5  -3  234.08   20.80
  -2  -5   3  198.18   18.10
  -2  -5   3  166.28   20.00
  -2  -5   3  207.28   19.40
   1   5  -3  898.31   34.70
  -1  -5   3  952.60   32.90
  -1  -5   3  917.81   34.80
  -1  -5   3  908.91   35.20
   0   5  -3  265.07   18.90
   0   5  -3  243.78   14.30
   0  -5   3  243.68   16.50
   0  -5   3  257.37   19.50
   0  -5   3  256.47   19.40
  -1   5  -3  152.98   13.50
  -1   5  -3  185.18   15.80
   1  -5   3  180.28   20.10
   1  -5   3  197.98   15.80
  -2   5  -3  739.23   27.60
  -2   5  -3  735.53   27.80
   2  -5   3  762.02   33.70
   2  -5   3  773.72   27.60
  -3   5  -3  500.95   24.30
  -3   5  -3  492.65   22.10
   3  -5   3  487.25   28.40
   3  -5   3  460.55   21.50
  -4   5  -3   68.99   12.00
  -4   5  -3   45.40   10.80
   4  -5   3   53.09   10.00
  -5   5  -3  320.37   22.90
  -5   5  -3  308.17   17.30
  -6   5  -3  965.90   40.40
  -6   5  -3  914.21   30.00
  -7   5  -3   89.79   11.80
  -7   5  -3   61.39   15.70
  -8   5  -3  108.29   19.30
  -8   5  -3  164.38   25.50
  -9   5  -3  599.24   37.90
  -9   5  -3  477.65   41.20
 -10   5  -3  144.29   28.20
 -10   5  -3  176.88   28.30
 -11   5  -3    6.30   15.40
 -11   5  -3    7.20   19.50
  -9  -4   3  263.97   35.50
  -9  -4   3  271.07   34.00
  -9  -4   3  275.87   34.80
  -8  -4   3    9.20   15.30
  -8  -4   3   11.70   15.50
  -8  -4   3   20.60   15.40
  -7  -4   3  183.88   26.70
  -7  -4   3   94.69   20.60
  -7  -4   3  130.99   21.80
  -6  -4   3  393.16   31.20
  -6  -4   3  437.76   31.50
  -6  -4   3  398.66   32.00
   5   4  -3  172.88   21.60
  -5  -4   3  243.98   23.00
  -5  -4   3  189.38   23.20
  -5  -4   3  160.88   22.80
   4   4  -3  205.28   20.60
  -4  -4   3  218.88   21.10
  -4  -4   3  190.08   21.20
  -4  -4   3  148.69   19.00
   3   4  -3 1243.28   41.50
  -3  -4   3 1151.48   41.00
  -3  -4   3 1223.18   42.70
  -3  -4   3 1266.87   43.80
   2   4  -3  699.13   16.90
   2   4  -3  690.83   16.40
   2   4  -3  621.44   27.80
  -2  -4   3  697.03   28.40
  -2  -4   3  667.03   28.50
  -2  -4   3  754.02   31.30
   1   4  -3   51.49   11.20
   1   4  -3   42.10    6.80
  -1  -4   3   53.59   10.30
  -1  -4   3   42.50   11.00
  -1  -4   3   52.19    9.50
   0   4  -3  431.66   16.30
   0   4  -3  453.15   21.90
   0  -4   3  447.56   19.90
   0  -4   3  448.86   21.60
   0  -4   3  407.36   21.50
  -1   4  -3 1921.81   49.20
  -1   4  -3 1924.01   47.00
   1  -4   3 1912.91   52.89
   1  -4   3 1925.31   49.40
  -2   4  -3  101.79   13.10
  -2   4  -3  118.09   12.70
   2  -4   3   94.89   14.10
   2  -4   3  103.39   13.70
  -3   4  -3  920.41   32.80
  -3   4  -3  903.91   27.80
   3  -4   3  899.51   34.90
   3  -4   3  903.91   30.30
  -4   4  -3 1323.87   43.20
  -4   4  -3 1376.16   35.80
   4  -4   3 1290.37   40.30
  -5   4  -3  241.78   20.80
  -5   4  -3  219.08   13.00
  -6   4  -3   32.90   13.10
  -6   4  -3   39.70    7.20
  -6   4  -3   50.99   13.70
  -7   4  -3  433.26   33.90
  -7   4  -3  426.56   29.20
  -8   4  -3  298.27   32.40
  -8   4  -3  323.67   27.90
  -9   4  -3   50.79   17.90
  -9   4  -3   55.69   16.80
 -10   4  -3  158.08   28.80
 -10   4  -3  244.58   29.10
 -11   4  -3  114.09   22.60
 -11   4  -3   98.29   26.80
 -10  -3   3   -1.00   16.00
 -10  -3   3    5.10   18.90
 -10  -3   3   -2.60   15.80
  -9  -3   3   99.69   22.90
  -9  -3   3  133.79   24.50
  -9  -3   3  143.09   26.30
  -8  -3   3  330.17   33.90
  -8  -3   3  315.27   32.40
  -8  -3   3  358.06   32.50
  -7  -3   3  272.67   26.30
  -7  -3   3  231.88   26.10
  -7  -3   3  343.27   31.20
  -6  -3   3   26.40   14.10
  -6  -3   3   49.20   13.90
  -6  -3   3   65.19   15.10
  -5  -3   3 1330.37   49.60
  -5  -3   3 1331.77   48.60
  -5  -3   3 1273.57   45.50
   4   3  -3  573.94   15.90
   4   3  -3  562.04   27.70
  -4  -3   3  583.54   30.20
  -4  -3   3  580.94   28.60
  -4  -3   3  564.74   26.90
   3   3  -3    3.90    3.70
   3   3  -3   -1.40    9.00
  -3  -3   3    7.00    7.90
  -3  -3   3   12.40    9.40
  -3  -3   3   -1.90    8.90
   2   3  -3  730.63   28.00
  -2  -3   3  663.43   28.00
  -2  -3   3  685.13   27.60
  -2  -3   3  709.13   25.40
   1   3  -3  279.37   10.00
   1   3  -3  245.88   16.80
  -1  -3   3  283.67   15.80
  -1  -3   3  249.08   17.60
  -1  -3   3  241.18   15.90
   0   3  -3  449.66   16.10
   0  -3   3  482.05   21.90
   0  -3   3  450.55   19.30
   0  -3   3  456.45   19.20
  -1   3  -3 1062.59   29.90
  -1   3  -3 1014.90   29.10
   1  -3   3 1057.99   31.80
   1  -3   3 1047.30   33.80
  -2   3  -3 1884.81   47.50
  -2   3  -3 1823.82   43.10
   2  -3   3 1786.22   49.70
   2  -3   3 1885.51   47.30
  -3   3  -3  687.63   20.80
  -3   3  -3  727.83   27.50
   3  -3   3  706.43   26.80
  -4   3  -3  519.65   24.80
  -4   3  -3  551.44   17.40
   4  -3   3  521.65   25.00
  -5   3  -3  558.94   28.00
  -5   3  -3  579.34   31.70
  -5   3  -3  567.34   17.70
  -6   3  -3  336.17   13.40
  -6   3  -3  325.67   27.80
  -6   3  -3  307.67   22.30
  -7   3  -3   14.50   12.00
  -7   3  -3   17.90   14.10
  -8   3  -3  446.26   31.10
  -8   3  -3  383.66   34.20
  -9   3  -3  253.17   34.20
  -9   3  -3  289.77   28.20
 -10   3  -3   -7.20   13.00
 -10   3  -3    2.30   17.20
 -11   3  -3  106.59   27.20
 -11   3  -3   74.19   20.20
 -11   3  -3   79.69   23.40
 -10  -2   3  119.79   25.50
 -10  -2   3  133.59   25.70
 -10  -2   3  182.88   30.60
  -9  -2   3   81.19   21.80
  -9  -2   3   92.99   21.40
  -9  -2   3   65.79   19.30
  -8  -2   3    6.40   13.30
  -8  -2   3  -10.60   12.40
  -8  -2   3   -4.20   12.50
  -7  -2   3  556.14   33.90
  -7  -2   3  556.24   36.20
  -7  -2   3  535.75   32.70
   6   2  -3  715.53   23.40
  -6  -2   3  765.82   38.20
  -6  -2   3  615.94   32.50
  -6  -2   3  701.83   33.60
  -6  -2   3  703.93   22.80
   5   2  -3   11.70    5.60
  -5  -2   3    9.50    4.90
  -5  -2   3   19.60   11.00
  -5  -2   3   13.50    9.80
  -5  -2   3   16.70    9.20
   4   2  -3 1308.27   31.80
  -4  -2   3 1214.38   39.40
  -4  -2   3 1304.17   43.80
  -4  -2   3 1316.17   42.80
  -4  -2   3 1275.97   28.20
   3   2  -3 2792.12   67.69
   3   2  -3 2795.62   58.59
  -3  -2   3 2730.93   64.89
  -3  -2   3 2781.12   68.69
  -3  -2   3 2777.52   70.29
   2   2  -3   24.40    8.60
   2   2  -3   16.80    5.70
  -2  -2   3   28.00    7.90
  -2  -2   3   23.90    7.80
  -2  -2   3   23.50    6.80
   1   2  -3 2188.28   44.40
   1   2  -3 2156.28   51.89
  -1  -2   3 2208.98   44.10
  -1  -2   3 2174.28   52.59
  -1  -2   3 2154.38   48.30
  -1  -2   3 2209.18   52.29
   0   2  -3 9999.00  190.08
   0   2  -3 9884.41  192.68
   0  -2   3 9841.82  194.48
   0  -2   3 9738.03  194.78
  -1   2  -3  104.59   11.00
  -1   2  -3   81.89    9.20
   1  -2   3   96.09   14.20
   1  -2   3  100.89   14.70
  -2   2  -3  411.26   18.90
  -2   2  -3  401.36   13.00
   2  -2   3  394.16   13.10
   2  -2   3  397.96   19.50
  -3   2  -3 3691.03   71.79
  -3   2  -3 3688.33   82.99
   3  -2   3 3714.73   72.09
   3  -2   3 3429.56   82.79
  -4   2  -3 1339.37   29.20
  -4   2  -3 1355.96   45.50
  -4   2  -3 1359.26   41.70
  -5   2  -3   31.60    5.30
  -5   2  -3   27.70   12.70
  -5   2  -3    8.70    8.60
  -6   2  -3  518.15   29.20
  -6   2  -3  513.95   33.90
  -6   2  -3  579.54   16.20
  -7   2  -3  372.26   27.50
  -7   2  -3  346.17   29.90
  -8   2  -3    8.40   15.10
  -8   2  -3   17.10   13.00
  -9   2  -3   40.40   15.70
  -9   2  -3   46.00   18.30
  -9   2  -3   41.70   17.40
 -10   2  -3  199.08   28.10
 -10   2  -3  141.89   25.40
 -10   2  -3  190.98   30.90
 -11   2  -3   36.80   22.30
 -11   2  -3   38.70   19.10
 -11   2  -3   26.40   19.70
 -11  -1   3   78.19   21.30
 -11  -1   3   78.89   22.60
 -11  -1   3   67.79   23.10
 -10  -1   3   26.50   16.20
 -10  -1   3    0.80   15.10
 -10  -1   3    3.40   15.20
  -9  -1   3  183.48   29.50
  -9  -1   3  218.88   28.40
  -9  -1   3  183.38   26.30
  -8  -1   3  580.54   35.40
  -8  -1   3  533.75   37.20
  -8  -1   3  463.85   32.30
   7   1  -3    3.30    7.40
  -7  -1   3   13.20   12.70
  -7  -1   3   13.30   10.90
  -7  -1   3   25.30   13.00
  -7  -1   3    7.70    6.80
   6   1  -3  655.53   24.30
  -6  -1   3  622.04   31.60
  -6  -1   3  622.24   22.10
  -6  -1   3  630.44   31.50
  -6  -1   3  622.94   34.00
   5   1  -3 1297.27   35.80
  -5  -1   3 1320.67   33.00
  -5  -1   3 1364.66   44.40
  -5  -1   3 1313.17   46.00
  -5  -1   3 1302.27   42.50
   4   1  -3  225.38   12.80
  -4  -1   3  226.08   10.10
  -4  -1   3  233.78   17.50
  -4  -1   3  222.58   15.70
  -4  -1   3  216.68   17.60
   3   1  -3  899.01   25.00
  -3  -1   3  872.71   29.40
  -3  -1   3  922.91   27.40
  -3  -1   3  932.61   20.80
  -3  -1   3  849.22   31.50
   2   1  -3 2628.54   56.69
   2   1  -3 2591.14   55.79
  -2  -1   3 2710.93   52.19
  -2  -1   3 2568.84   61.99
  -2  -1   3 2674.43   55.69
  -2  -1   3 2691.83   60.09
   1   1  -3 5184.98   97.79
   1   1  -3 5027.20   98.79
  -1  -1   3 4948.50  104.59
  -1  -1   3 5099.79   97.49
  -1  -1   3 5049.19   98.59
  -1  -1   3 5093.89  102.59
   0   1  -3   72.89    9.50
   0  -1   3   66.69   11.50
   0  -1   3  100.59   12.20
  -1   1  -3 1265.27   32.10
   1  -1   3 1142.19   32.80
   1  -1   3 1197.18   26.70
   1  -1   3 1199.78   34.20
  -2   1  -3 1541.45   40.80
  -2   1  -3 1563.34   42.60
   2  -1   3 1571.54   42.20
  -3   1  -3  396.26   22.70
   3  -1   3  372.66   20.30
  -4   1  -3  711.33   31.60
  -4   1  -3  674.43   27.90
  -5   1  -3 1599.74   48.90
  -5   1  -3 1649.93   55.59
  -5   1  -3 1600.34   33.80
  -5   1  -3 1570.74   33.50
  -6   1  -3   77.89   14.00
  -6   1  -3   36.90   13.50
  -6   1  -3   61.29    6.50
  -7   1  -3  411.56   27.70
  -7   1  -3  493.05   35.00
  -8   1  -3  489.55   35.70
  -8   1  -3  488.55   31.50
  -8   1  -3  450.85   38.10
  -9   1  -3  148.29   23.40
  -9   1  -3  189.28   31.90
  -9   1  -3  169.08   27.20
 -10   1  -3  -10.40   16.90
 -10   1  -3    9.40   17.20
 -10   1  -3  -11.10   14.50
 -11   1  -3  100.49   27.00
 -11   1  -3  147.29   28.30
 -11   0   3  160.38   27.70
 -11   0   3  203.58   31.60
 -11   0   3  191.48   32.80
 -10   0   3  401.56   35.70
 -10   0   3  423.76   36.30
 -10   0   3  427.46   38.60
  -9   0   3   85.59   20.40
  -9   0   3   61.79   17.50
  -9   0   3   94.69   19.10
   8   0  -3  109.69   15.50
  -8   0   3   79.39   16.00
  -8   0   3  103.09   20.00
  -8   0   3  103.29   14.60
  -8   0   3   87.59   17.40
   7   0  -3  628.84   27.00
  -7   0   3  607.74   24.80
  -7   0   3  616.04   32.70
  -7   0   3  643.14   36.30
  -7   0   3  618.34   33.00
   6   0  -3  261.27   17.50
  -6   0   3  225.28   14.50
  -6   0   3  253.77   20.60
  -6   0   3  281.77   23.40
  -6   0   3  214.58   19.40
   5   0  -3  429.76   19.60
  -5   0   3  483.35   18.20
  -5   0   3  457.45   25.50
  -5   0   3  454.65   23.30
  -5   0   3  448.86   22.80
   4   0  -3 2454.65   57.69
  -4   0   3 2486.65   63.79
  -4   0   3 2528.15   60.09
  -4   0   3 2521.15   54.99
  -4   0   3 2450.85   60.69
   3   0  -3  384.46   16.20
  -3   0   3  356.26   16.60
  -3   0   3  374.56   19.50
  -3   0   3  370.66   15.50
   2   0  -3  285.97   14.10
  -2   0   3  302.17   10.50
  -2   0   3  280.47   13.20
  -2   0   3  285.77   11.50
   1   0  -3   56.49    9.50
   1   0  -3   46.20    7.40
  -1   0   3   53.09    7.90
  -1   0   3   70.09   11.30
  -1   0   3   52.99    7.10
   0   0  -3  356.66   12.80
   0   0  -3  335.47   13.40
   0   0   3  304.57   12.30
   0   0   3  301.07   13.40
   0   0   3  374.16   18.30
  -1   0  -3   25.20    7.60
  -1   0  -3   21.80    7.70
   1   0   3   20.10    8.60
   1   0   3   22.60    3.80
  -2   0  -3  557.94   24.10
  -2   0  -3  527.65   22.10
   2   0   3  575.44   23.60
  -3   0  -3 2791.72   66.89
  -3   0  -3 2756.02   70.69
  -4   0  -3  341.87   20.80
  -4   0  -3  336.77   24.00
  -4   0  -3  343.47   10.80
  -5   0  -3  332.07   26.60
  -5   0  -3  335.87   22.00
  -6   0  -3 1286.57   52.69
  -6   0  -3 1353.26   47.00
  -6   0  -3 1494.25   52.59
  -7   0  -3  311.47   28.50
  -7   0  -3  280.97   25.40
  -7   0  -3  317.17   32.40
  -8   0  -3   30.90   18.90
  -8   0  -3   36.80   14.80
  -8   0  -3   26.20   14.60
  -9   0  -3  338.17   30.60
  -9   0  -3  319.87   37.00
  -9   0  -3  243.18   32.20
 -10   0  -3  115.59   25.20
 -10   0  -3  132.29   29.00
 -11   1   3    5.10   16.00
 -11   1   3   15.20   16.90
 -11   1   3    9.20   15.40
 -10   1   3  237.38   30.70
 -10   1   3  277.77   30.30
 -10   1   3  245.28   30.90
  -9   1   3  595.54   36.90
  -9   1   3  587.14   37.60
  -9   1   3  615.14   39.40
  -9   1   3  571.74   28.80
   8  -1  -3  161.88   18.80
  -8   1   3  165.98   21.90
  -8   1   3  154.38   21.00
  -8   1   3  134.89   23.00
  -8   1   3  167.88   16.90
   7  -1  -3  196.68   18.40
  -7   1   3  201.78   17.10
  -7   1   3  174.78   20.80
  -7   1   3  202.48   20.20
   6  -1  -3  752.92   29.30
  -6   1   3  754.92   34.10
  -6   1   3  782.22   31.80
  -6   1   3  805.72   33.60
  -6   1   3  782.52   27.60
   5  -1  -3  554.34   23.60
  -5   1   3  585.84   26.90
  -5   1   3  579.14   22.00
  -5   1   3  578.94   24.50
  -5   1   3  586.04   25.90
   4  -1  -3   -0.60    6.90
  -4   1   3    1.70    6.00
  -4   1   3   -8.70    5.80
  -4   1   3    5.70    6.40
   3  -1  -3 1108.29   32.10
  -3   1   3 1098.69   32.30
  -3   1   3 1143.89   29.70
   2  -1  -3 1428.56   36.50
  -2   1   3 1459.25   32.80
  -2   1   3 1463.55   32.20
  -2   1   3 1483.25   36.50
   1  -1  -3  130.59   10.80
   1  -1  -3  156.68    9.90
   1  -1  -3  142.09   13.00
  -1   1   3  140.69    9.70
  -1   1   3  168.48   12.80
   0  -1  -3 1559.54   37.30
   0  -1  -3 1529.15   38.30
   0   1   3 1462.35   37.50
   0   1   3 1512.65   35.10
  -1  -1  -3  946.81   23.70
  -1  -1  -3  960.80   30.80
  -1  -1  -3  997.20   30.30
   1   1   3  991.60   24.00
   1   1   3  995.50   29.90
  -2  -1  -3 1623.44   43.70
  -2  -1  -3 1628.44   35.50
  -2  -1  -3 1536.85   46.20
   2   1   3 1606.04   35.50
  -3  -1  -3    0.70    9.70
  -3  -1  -3   11.10    8.30
   3   1   3    4.90    4.70
  -4  -1  -3  882.91   34.90
  -4  -1  -3  912.91   38.20
  -4  -1  -3  870.81   33.00
   4   1   3  890.41   24.60
  -5  -1  -3  523.85   28.90
  -5  -1  -3  478.95   26.30
  -5  -1  -3  505.65   32.40
  -6  -1  -3  140.99   23.00
  -6  -1  -3  110.69   18.30
  -6  -1  -3  105.29   18.80
  -7  -1  -3  877.71   49.10
  -7  -1  -3  844.22   39.30
  -7  -1  -3  768.02   42.20
  -8  -1  -3  456.25   36.60
  -8  -1  -3  483.45   33.40
  -8  -1  -3  431.66   39.80
  -9  -1  -3    8.20   15.30
  -9  -1  -3   -0.10   17.80
  -9  -1  -3    4.90   15.90
 -10  -1  -3   98.89   24.30
 -10  -1  -3   78.89   26.70
 -12   2   3   65.29   22.20
 -12   2   3   40.90   20.10
 -12   2   3   73.79   22.60
 -11   2   3  314.27   36.30
 -11   2   3  303.97   32.90
 -11   2   3  362.56   35.30
 -10   2   3  150.48   24.90
 -10   2   3  110.49   20.50
 -10   2   3  127.69   19.00
 -10   2   3  137.89   18.60
 -10   2   3  109.59   22.30
   9  -2  -3   78.39   15.60
  -9   2   3   94.79   18.10
  -9   2   3   77.19   14.50
  -9   2   3  117.79   21.20
  -9   2   3   73.49   17.40
   8  -2  -3  815.12   36.40
  -8   2   3  819.32   34.50
  -8   2   3  851.31   38.80
  -8   2   3  854.41   41.30
   7  -2  -3  693.63   32.50
  -7   2   3  751.82   35.40
  -7   2   3  769.02   33.70
  -7   2   3  811.52   31.20
   6  -2  -3    7.50    8.90
  -6   2   3    0.80    7.30
  -6   2   3    6.70    8.40
  -6   2   3   13.10    7.40
  -6   2   3    0.20    7.60
   5  -2  -3  894.51   31.70
  -5   2   3  891.61   31.70
  -5   2   3  835.32   29.70
   4  -2  -3 1849.11   48.40
  -4   2   3 1761.72   47.00
   3  -2  -3  115.79   13.40
  -3   2   3   85.09   12.80
  -3   2   3  101.89   10.30
   2  -2  -3  364.06   17.20
   2  -2  -3  372.96   15.90
  -2   2   3  351.76   16.70
  -2   2   3  379.56   14.40
   1  -2  -3  658.43   21.80
   1  -2  -3  602.64   21.60
   1  -2  -3  660.73   22.50
   1  -2  -3  613.34   20.00
  -1   2   3  626.64   21.70
  -1   2   3  648.04   20.10
   0  -2  -3  315.27   18.00
   0  -2  -3  329.37   17.20
   0  -2  -3  331.47   12.60
   0  -2  -3  328.77   15.70
   0   2   3  326.07   15.40
   0   2   3  327.37   15.40
  -1  -2  -3  425.96   21.90
  -1  -2  -3  416.46   19.70
  -1  -2  -3  474.95   18.00
   1   2   3  437.56   16.70
  -2  -2  -3 2152.08   58.09
  -2  -2  -3 1980.80   52.49
  -2  -2  -3 2031.10   52.09
   2   2   3 2126.49   47.80
  -3  -2  -3 1088.19   36.60
  -3  -2  -3 1127.69   42.20
  -3  -2  -3 1143.49   37.50
   3   2   3 1084.39   30.80
  -4  -2  -3   -3.00   10.30
  -4  -2  -3   14.10    9.20
  -4  -2  -3   26.50   10.70
   4   2   3    6.10    6.40
  -5  -2  -3  308.57   29.10
  -5  -2  -3  252.37   23.40
  -5  -2  -3  274.67   22.20
   5   2   3  242.08   15.70
  -6  -2  -3  557.04   37.30
  -6  -2  -3  524.75   32.50
  -6  -2  -3  616.84   32.10
  -7  -2  -3   80.69   17.50
  -7  -2  -3  122.69   18.80
  -7  -2  -3  105.69   23.40
  -8  -2  -3   67.09   19.50
  -8  -2  -3   53.39   16.70
  -8  -2  -3   77.89   23.80
  -9  -2  -3  223.58   33.60
  -9  -2  -3  295.07   40.20
 -10  -2  -3   -6.90   21.50
 -10  -2  -3   -6.90   17.60
 -12   3   3   35.90   20.40
 -12   3   3   53.99   19.90
 -12   3   3   75.49   21.50
 -11   3   3    2.90   14.30
 -11   3   3   11.90   13.70
 -11   3   3  -15.60   13.70
 -11   3   3   -9.20   11.30
 -10   3   3  242.28   27.00
 -10   3   3  237.18   27.50
 -10   3   3  242.58   29.40
 -10   3   3  271.27   23.90
 -10   3   3  253.27   24.30
   9  -3  -3  238.78   25.40
  -9   3   3  280.47   25.80
  -9   3   3  283.77   27.80
  -9   3   3  269.77   27.70
  -9   3   3  248.38   22.60
  -9   3   3  250.37   22.00
   8  -3  -3   73.99   16.00
  -8   3   3   71.79   13.70
  -8   3   3   75.19   15.00
  -8   3   3   74.69   14.50
  -8   3   3   90.29   17.40
  -8   3   3   93.89   14.70
   7  -3  -3  612.64   30.50
  -7   3   3  522.95   30.70
  -7   3   3  525.45   28.40
  -7   3   3  527.85   26.90
  -7   3   3  581.54   28.20
  -7   3   3  547.55   27.50
   6  -3  -3 1239.78   42.10
  -6   3   3 1242.18   41.10
  -6   3   3 1198.78   40.40
   5  -3  -3  314.17   20.70
  -5   3   3  278.17   17.10
  -5   3   3  304.47   19.90
   4  -3  -3  358.76   20.70
  -4   3   3  350.26   16.50
  -4   3   3  328.67   18.30
   3  -3  -3 1618.84   43.90
  -3   3   3 1649.93   37.80
  -3   3   3 1517.35   43.60
   2  -3  -3 1577.74   35.20
   2  -3  -3 1597.64   42.20
   2  -3  -3 1611.64   42.20
  -2   3   3 1521.35   42.50
  -2   3   3 1598.24   34.10
  -2   3   3 1600.24   36.30
   1  -3  -3  139.79   12.50
   1  -3  -3  161.88    9.40
   1  -3  -3  173.48   11.40
   1  -3  -3  162.38   12.70
   1  -3  -3  168.58   15.50
  -1   3   3  144.89    9.80
  -1   3   3  158.78   14.10
  -1   3   3  164.08    8.50
   0  -3  -3 3397.46   78.79
   0  -3  -3 3442.46   72.49
   0  -3  -3 3275.57   74.79
   0  -3  -3 3346.07   70.79
   0   3   3 3256.47   73.79
  -1  -3  -3  793.72   24.20
  -1  -3  -3  844.32   32.60
  -1  -3  -3  795.12   26.20
  -1  -3  -3  765.22   27.80
   1   3   3  758.92   25.90
  -2  -3  -3    7.40    8.10
  -2  -3  -3   11.70    7.70
  -2  -3  -3    2.20   10.30
   2   3   3    1.90    6.60
  -3  -3  -3  815.92   31.10
  -3  -3  -3  907.51   39.00
  -3  -3  -3  885.21   33.60
   3   3   3  843.02   28.90
  -4  -3  -3  493.55   31.50
  -4  -3  -3  490.35   28.00
  -4  -3  -3  501.75   26.70
   4   3   3  531.05   23.00
  -5  -3  -3  116.69   18.50
  -5  -3  -3  103.59   19.80
  -5  -3  -3   87.89   16.40
   5   3   3  113.79   15.80
  -6  -3  -3  155.48   24.10
  -6  -3  -3  163.38   21.40
  -6  -3  -3  143.49   25.50
  -7  -3  -3  361.96   27.80
  -7  -3  -3  250.47   35.10
  -7  -3  -3  265.17   30.50
  -8  -3  -3  116.39   22.60
  -8  -3  -3   74.59   22.90
  -9  -3  -3   38.00   24.20
  -9  -3  -3   28.50   19.10
 -12   4   3  123.99   26.60
 -12   4   3  153.28   26.40
 -12   4   3  148.89   25.20
 -11   4   3  283.37   34.30
 -11   4   3  320.07   32.50
 -11   4   3  274.27   26.70
 -11   4   3  338.87   33.30
  10  -4  -3   36.20   15.30
 -10   4   3   40.20   14.90
 -10   4   3   22.10   11.80
 -10   4   3   28.40   12.20
 -10   4   3   10.20   12.20
 -10   4   3   39.40   16.30
   9  -4  -3   81.29   17.60
  -9   4   3   82.19   16.20
  -9   4   3   84.89   15.00
  -9   4   3   87.49   18.90
  -9   4   3   61.19   14.70
  -9   4   3   90.69   16.30
   8  -4  -3  769.72   37.00
  -8   4   3  789.22   34.70
  -8   4   3  806.92   36.10
  -8   4   3  768.02   39.80
  -8   4   3  800.32   35.60
   7  -4  -3   27.80   12.90
  -7   4   3   36.80   10.70
  -7   4   3   38.70   10.60
  -7   4   3   36.60   11.10
   6  -4  -3  219.78   21.10
  -6   4   3  246.28   17.10
  -6   4   3  237.78   19.00
   5  -4  -3 1392.66   45.00
  -5   4   3 1400.86   38.80
  -5   4   3 1333.57   42.80
   4  -4  -3  991.40   35.20
  -4   4   3 1021.60   28.20
  -4   4   3 1083.69   36.10
   3  -4  -3  825.22   30.20
  -3   4   3  819.32   21.10
  -3   4   3  802.32   30.60
   2  -4  -3  817.12   19.50
   2  -4  -3  781.32   28.00
   2  -4  -3  823.42   23.50
   2  -4  -3  777.62   30.00
  -2   4   3  812.72   29.50
  -2   4   3  825.22   19.70
   1  -4  -3 1920.51   45.00
   1  -4  -3 1918.21   48.20
   1  -4  -3 1939.71   53.69
  -1   4   3 1936.51   50.99
   0  -4  -3   67.39   10.30
   0  -4  -3   64.39   10.40
   0  -4  -3   69.79   10.30
   0  -4  -3   61.59   13.20
   0   4   3   84.29   12.10
  -1  -4  -3 1508.55   49.30
  -1  -4  -3 1516.95   37.30
  -1  -4  -3 1462.75   41.70
  -1  -4  -3 1438.66   42.20
   1   4   3 1466.05   42.50
  -2  -4  -3 1206.58   45.60
  -2  -4  -3 1211.98   37.70
  -2  -4  -3 1221.48   31.80
  -2  -4  -3 1217.38   39.40
   2   4   3 1159.68   36.90
  -3  -4  -3   33.30   14.00
  -3  -4  -3   20.10   10.30
  -3  -4  -3   36.00   10.00
  -3  -4  -3   27.40    6.20
   3   4   3   24.70    9.60
  -4  -4  -3  209.48   21.90
  -4  -4  -3  177.18   24.20
  -4  -4  -3  188.88   12.90
  -4  -4  -3  223.08   19.40
   4   4   3  209.98   18.70
  -5  -4  -3  875.91   47.80
  -5  -4  -3  964.20   43.40
  -5  -4  -3  933.61   37.80
   5   4   3  908.01   36.00
  -6  -4  -3  196.48   21.80
  -6  -4  -3  112.89   23.40
  -6  -4  -3  155.98   25.40
  -7  -4  -3   -7.50   15.30
  -7  -4  -3   -2.80   13.60
  -8  -4  -3   98.49   23.30
  -8  -4  -3  101.19   26.10
  -9  -4  -3   57.19   21.30
  -9  -4  -3   53.09   23.90
 -12   5   3    1.00   12.70
 -12   5   3   -4.60   13.70
 -12   5   3    0.20   16.80
 -12   5   3    3.00   13.50
 -11   5   3   95.99   19.20
 -11   5   3   80.19   18.10
 -11   5   3  126.29   21.70
 -11   5   3   94.49   22.90
  10  -5  -3  358.46   31.30
 -10   5   3  385.26   27.50
 -10   5   3  356.96   28.40
 -10   5   3  370.86   29.90
 -10   5   3  363.26   34.50
 -10   5   3  391.06   29.80
   9  -5  -3  179.88   24.80
  -9   5   3  192.88   21.10
  -9   5   3  181.68   21.70
  -9   5   3  198.18   22.80
  -9   5   3  184.78   25.70
   8  -5  -3  132.89   20.80
  -8   5   3  177.88   19.20
  -8   5   3  146.89   20.40
  -8   5   3  167.18   18.70
   7  -5  -3  252.67   24.40
  -7   5   3  250.67   18.80
  -7   5   3  241.98   20.90
   6  -5  -3  273.07   21.80
  -6   5   3  257.27   16.90
  -6   5   3  272.37   21.00
   5  -5  -3   40.90   12.30
  -5   5   3   24.80    9.80
  -5   5   3   32.70    6.70
   4  -5  -3  201.58   18.90
  -4   5   3  199.48   18.50
  -4   5   3  214.18    9.70
   3  -5  -3 1564.84   48.10
   3  -5  -3 1566.44   40.20
   3  -5  -3 1618.54   46.60
  -3   5   3 1502.95   46.40
   2  -5  -3  263.87   19.90
   2  -5  -3  273.47   17.60
   2  -5  -3  261.17   15.90
  -2   5   3  291.77   20.30
   1  -5  -3  843.72   35.30
   1  -5  -3  773.32   27.10
   1  -5  -3  776.72   26.50
  -1   5   3  823.52   31.50
   0  -5  -3 2683.23   67.99
   0  -5  -3 2748.32   63.89
   0  -5  -3 2733.63   66.19
   0  -5  -3 2849.01   75.59
   0   5   3 2848.92   70.29
  -1  -5  -3 1040.90   29.30
  -1  -5  -3 1021.50   35.10
  -1  -5  -3  995.10   35.30
  -1  -5  -3 1089.09   43.20
   1   5   3 1040.50   36.70
  -2  -5  -3   80.99   12.70
  -2  -5  -3   98.69   16.60
  -2  -5  -3   81.59   15.90
  -2  -5  -3   96.89    9.30
   2   5   3  111.69   15.70
  -3  -5  -3  425.96   15.00
  -3  -5  -3  417.66   26.80
  -3  -5  -3  397.16   23.80
  -3  -5  -3  457.65   32.10
   3   5   3  427.96   25.60
  -4  -5  -3  116.59   18.70
  -4  -5  -3  143.29   23.90
  -4  -5  -3  139.29   17.90
   4   5   3  114.69   18.50
  -5  -5  -3  176.18   29.70
  -5  -5  -3  148.79   19.00
  -5  -5  -3  113.89   20.20
   5   5   3  140.49   19.60
  -6  -5  -3  184.08   29.60
  -6  -5  -3  218.78   28.60
  -7  -5  -3  135.59   27.80
  -7  -5  -3  146.49   25.20
  -8  -5  -3  -10.40   19.40
  -8  -5  -3   17.00   17.00
 -12   6   3  220.58   28.40
 -12   6   3  180.28   32.30
 -12   6   3  167.28   26.20
 -11   6   3   57.09   16.90
 -11   6   3   71.09   22.40
 -11   6   3  148.99   23.60
  10  -6  -3   37.40   17.30
 -10   6   3   61.39   19.80
 -10   6   3   37.80   13.90
 -10   6   3   14.00   13.60
   9  -6  -3  304.87   27.90
  -9   6   3  387.76   26.60
  -9   6   3  357.66   27.00
  -9   6   3  375.06   29.60
   8  -6  -3  146.29   23.50
  -8   6   3  139.69   16.70
  -8   6   3  127.89   20.10
  -8   6   3  131.89   21.50
   7  -6  -3    0.50   10.70
  -7   6   3    2.20    9.50
  -7   6   3    6.50    7.00
   6  -6  -3  601.84   32.40
  -6   6   3  573.14   30.00
  -6   6   3  582.24   21.80
   5  -6  -3  671.83   33.50
  -5   6   3  796.62   24.70
  -5   6   3  748.63   20.70
  -5   6   3  767.72   33.90
   4  -6  -3   75.99   14.00
  -4   6   3   69.39   13.30
   3  -6  -3  444.46   27.80
   3  -6  -3  457.05   20.80
   3  -6  -3  429.66   23.60
  -3   6   3  448.56   25.70
   2  -6  -3  864.81   30.80
   2  -6  -3 1004.50   39.70
   2  -6  -3  889.21   32.40
  -2   6   3  948.41   36.50
   1  -6  -3  407.86   20.30
   1  -6  -3  408.76   21.40
   1  -6  -3  422.36   28.60
  -1   6   3  425.66   25.20
   0  -6  -3   17.50    8.90
   0  -6  -3    9.90   11.00
   0  -6  -3   -0.20    6.60
   0   6   3   -9.40    9.10
  -1  -6  -3  882.31   26.70
  -1  -6  -3  877.81   32.90
  -1  -6  -3  872.01   41.90
  -1  -6  -3  842.32   34.20
   1   6   3  819.12   35.00
  -2  -6  -3  366.56   26.20
  -2  -6  -3  379.36   15.20
  -2  -6  -3  386.46   32.20
  -2  -6  -3  410.06   23.60
   2   6   3  399.16   25.70
  -3  -6  -3   -0.80   12.30
  -3  -6  -3   -3.00    8.50
  -3  -6  -3   -6.40   10.50
   3   6   3   -0.60   11.00
  -4  -6  -3  288.77   33.70
  -4  -6  -3  277.67   27.20
  -4  -6  -3  281.37   22.50
   4   6   3  284.87   25.20
  -5  -6  -3  262.27   29.30
  -5  -6  -3  303.17   36.30
   5   6   3  282.27   26.50
  -6  -6  -3   34.70   20.20
  -6  -6  -3   38.80   17.20
  -7  -6  -3   37.20   23.10
  -7  -6  -3   41.20   18.70
 -12   7   3    0.60   14.70
 -12   7   3    1.30   16.30
 -12   7   3    0.10   12.00
 -11   7   3  114.69   22.20
 -11   7   3  129.09   25.40
  10  -7  -3  164.18   27.40
 -10   7   3  176.38   23.60
 -10   7   3  153.08   24.40
   9  -7  -3    7.70   14.30
  -9   7   3   22.10   12.50
  -9   7   3   18.50   13.30
   8  -7  -3  268.87   27.00
  -8   7   3  306.97   27.20
   7  -7  -3  405.56   31.40
  -7   7   3  493.55   29.90
   6  -7  -3   65.49   16.90
  -6   7   3   82.09   15.10
   5  -7  -3  156.78   20.60
  -5   7   3  145.59   20.30
   4  -7  -3  615.44   26.80
   4  -7  -3  506.75   28.80
  -4   7   3  596.14   31.40
   3  -7  -3  261.47   25.60
   3  -7  -3  273.37   19.50
   3  -7  -3  301.57   21.70
  -3   7   3  267.97   23.70
   2  -7  -3  171.38   17.60
   2  -7  -3  211.38   24.40
   2  -7  -3  205.08   17.30
  -2   7   3  180.38   21.30
   1  -7  -3  731.63   30.70
   1  -7  -3  743.93   28.50
   1  -7  -3  753.52   39.00
  -1   7   3  726.03   34.80
   0  -7  -3  531.35   22.50
   0  -7  -3  561.24   35.90
   0  -7  -3  556.14   28.00
   0   7   3  420.46   28.80
  -1  -7  -3   42.80   15.10
  -1  -7  -3   42.70    8.20
  -1  -7  -3   21.50   11.20
   1   7   3   41.80   14.10
  -2  -7  -3  167.58   19.20
  -2  -7  -3  226.18   29.10
  -2  -7  -3  157.98   22.40
   2   7   3  195.38   22.70
  -3  -7  -3  377.36   36.10
  -3  -7  -3  384.96   30.30
  -3  -7  -3  374.86   24.50
   3   7   3  354.06   28.00
  -4  -7  -3   76.69   22.80
  -4  -7  -3   79.59   18.80
   4   7   3  117.19   20.20
  -5  -7  -3    6.90   17.80
  -5  -7  -3   10.90   15.60
   5   7   3   19.10   14.70
  -6  -7  -3  123.69   27.50
  -6  -7  -3  135.39   24.50
  -7  -7  -3   61.19   21.60
  -7  -7  -3   54.99   24.90
 -11   8   3   19.30   15.60
  10  -8  -3   52.39   18.60
 -10   8   3   17.10   15.90
 -10   8   3   64.79   17.30
   9  -8  -3  209.98   29.30
  -9   8   3  223.78   28.40
  -9   8   3  199.08   24.20
   8  -8  -3   62.09   19.00
  -8   8   3   42.30   14.30
   7  -8  -3  101.09   18.60
  -7   8   3   73.19   15.90
   6  -8  -3  712.23   38.30
  -6   8   3  636.64   35.20
   5  -8  -3  270.67   25.50
  -5   8   3  277.77   25.60
   4  -8  -3    8.30    9.70
   4  -8  -3   11.70   11.30
  -4   8   3   -0.20   11.60
   3  -8  -3  217.88   21.20
   3  -8  -3  228.78   27.90
   3  -8  -3  225.18   21.40
  -3   8   3  252.07   24.60
   2  -8  -3  100.19   16.00
   2  -8  -3   77.39   15.40
   2  -8  -3   98.49   18.90
  -2   8   3   69.89   14.70
   1  -8  -3   -1.10   10.10
   1  -8  -3   -3.70    7.60
   1  -8  -3   -3.80   13.50
  -1   8   3  -10.40   11.50
   0  -8  -3   83.49   13.00
   0  -8  -3   68.89   19.80
   0  -8  -3   80.79   15.40
   0   8   3   87.59   18.00
  -1  -8  -3  279.87   24.40
  -1  -8  -3  221.38   30.50
   1   8   3  215.78   25.50
  -2  -8  -3   13.60   16.90
  -2  -8  -3   12.70   12.10
   2   8   3  -12.00   12.80
  -3  -8  -3  113.49   24.10
  -3  -8  -3   45.10   16.80
   3   8   3   73.99   18.60
  -4  -8  -3  246.18   29.40
  -4  -8  -3  261.57   36.60
   4   8   3  258.97   29.30
  -5  -8  -3   65.89   20.80
  -5  -8  -3   77.69   26.10
  -6  -8  -3   18.40   17.70
  -6  -8  -3   -4.40   20.30
 -11   9   3   72.19   21.80
  10  -9  -3    5.70   17.00
 -10   9   3   28.10   17.30
 -10   9   3   82.99   19.10
   9  -9  -3   -6.20   13.60
  -9   9   3    4.00   12.50
  -9   9   3  -11.20   14.10
   8  -9  -3  238.28   29.60
  -8   9   3  181.58   24.90
   7  -9  -3  297.27   30.10
  -7   9   3  208.98   25.90
   6  -9  -3    0.10   12.50
  -6   9   3    2.80   12.30
   5  -9  -3  269.47   26.40
  -5   9   3  192.08   25.70
   4  -9  -3  322.77   24.90
   4  -9  -3  272.17   24.40
  -4   9   3  212.58   24.10
   3  -9  -3   11.90   11.50
   3  -9  -3   30.30   17.50
   3  -9  -3   14.30   11.30
  -3   9   3    5.40   13.10
   2  -9  -3  359.96   26.80
   2  -9  -3  311.67   23.20
   2  -9  -3  366.36   34.10
  -2   9   3  376.36   30.70
   1  -9  -3  346.67   27.20
   1  -9  -3  368.36   22.90
   1  -9  -3  381.96   35.40
  -1   9   3  409.36   32.40
   0  -9  -3   38.20   14.60
   0  -9  -3   65.59   20.60
   0   9   3   51.89   17.10
  -1  -9  -3   62.29   16.80
  -1  -9  -3   68.59   22.10
   1   9   3   60.19   18.80
  -2  -9  -3  165.18   25.70
  -2  -9  -3  148.39   26.60
   2   9   3  148.79   26.00
  -3  -9  -3   44.50   18.50
  -3  -9  -3  122.99   27.10
   3   9   3   98.09   21.90
  -4  -9  -3  -23.30   16.90
  -4  -9  -3  -14.10   14.10
   4   9   3   -7.10   14.10
  -5  -9  -3  160.88   28.60
  -5  -9  -3  164.88   32.30
 -10  10   3   59.29   19.50
 -10  10   3   47.70   19.40
   9 -10  -3   82.29   22.20
  -9  10   3   72.29   19.60
  -9  10   3   88.59   20.70
   8 -10  -3    4.60   15.50
  -8  10   3   14.90   15.30
   7 -10  -3   77.19   20.70
  -7  10   3  101.39   20.30
   6 -10  -3  329.17   30.80
  -6  10   3  290.27   30.60
   5 -10  -3   52.99   16.60
  -5  10   3   52.49   18.30
   4 -10  -3   35.10   14.10
  -4  10   3   56.39   16.60
   3 -10  -3  459.25   39.50
   3 -10  -3  471.25   35.70
   3 -10  -3  470.05   30.10
  -3  10   3  507.15   36.40
   2 -10  -3  160.58   23.40
   2 -10  -3  141.79   26.40
   2 -10  -3  133.89   19.20
  -2  10   3  189.98   27.80
   1 -10  -3    3.00   13.10
   1 -10  -3   22.90   19.00
  -1  10   3    0.70   14.40
   0 -10  -3  150.48   26.00
   0 -10  -3  165.98   28.10
   0  10   3  172.08   28.50
  -1 -10  -3   22.00   20.30
  -1 -10  -3   52.39   17.30
   1  10   3   78.19   20.80
  -2 -10  -3   -3.20   18.90
  -2 -10  -3   -7.20   14.90
   2  10   3    1.60   16.00
  -3 -10  -3   42.80   23.80
  -3 -10  -3   69.29   21.80
   3  10   3   47.00   19.70
 -10  11   3  -13.00   15.50
 -10  11   3   50.09   19.00
  -9  11   3   42.30   18.80
  -9  11   3   62.89   20.40
   8 -11  -3   79.49   21.90
  -8  11   3  128.39   23.50
   7 -11  -3   58.49   19.90
  -7  11   3   71.19   20.20
   6 -11  -3   -7.70   13.80
  -6  11   3  -15.20   14.50
   5 -11  -3  116.09   20.70
  -5  11   3  133.89   24.00
   4 -11  -3   86.69   18.50
  -4  11   3  102.49   23.60
   3 -11  -3   36.80   14.40
   3 -11  -3   54.19   21.80
  -3  11   3   49.00   18.50
   2 -11  -3  106.89   25.00
  -2  11   3   81.19   22.30
   1 -11  -3   79.09   23.90
  -1  11   3  108.29   24.30
   0 -11  -3   -0.20   18.50
   0  11   3  -12.70   15.40
  -1 -11  -3   37.30   22.70
   1  11   3   62.89   21.00
  -2 -11  -3   96.09   29.00
   2  11   3  106.79   24.80
  -8  12   3   -5.90   16.50
   7 -12  -3   56.29   20.20
  -7  12   3   61.09   21.60
   6 -12  -3   30.00   17.60
  -6  12   3   39.20   17.90
   5 -12  -3  -26.50   13.00
  -5  12   3  -11.90   15.70
  -4  12   3  136.89   25.50
   3 -12  -3   61.29   22.90
  -3  12   3   40.50   19.60
   2 -12  -3   16.60   20.90
  -2  12   3   24.40   19.00
   1 -12  -3   62.09   25.20
  -1  12   3   50.39   21.40
   0 -12  -3   95.19   28.70
   0  12   3  126.29   27.00
  -6  13   3   16.10   20.70
  -5  13   3   75.89   22.60
  -4  13   3   23.60   21.10
   3 -13  -3   36.80   22.70
  -3  13   3   24.20   21.80
   2 -13  -3   89.69   28.50
  -2  13   3   67.69   25.10
  -1  13  -4   20.60   18.40
   1 -13   4   17.00   23.00
  -2  13  -4   53.69   21.40
   2 -13   4   59.29   23.80
  -3  13  -4   26.20   18.40
   3 -13   4   67.19   25.10
  -4  13  -4   13.60   19.10
   4 -13   4   57.49   23.40
  -5  13  -4   66.99   22.90
  -5  13  -4   60.19   19.90
   5 -13   4   74.89   24.20
   1  12  -4    3.30   19.40
  -1 -12   4   -4.40   21.60
  -1 -12   4    7.40   19.60
   0  12  -4   52.19   21.50
   0 -12   4  117.19   28.50
   0 -12   4  103.69   25.90
  -1  12  -4   29.60   19.30
   1 -12   4    9.90   20.70
  -2  12  -4    0.50   16.40
   2 -12   4    9.30   19.00
  -3  12  -4   72.89   21.30
   3 -12   4   26.60   21.20
  -4  12  -4   86.09   19.00
  -4  12  -4   92.59   22.10
   4 -12   4   46.50   21.90
  -5  12  -4  -35.90   14.20
  -5  12  -4    4.40   13.60
   5 -12   4  -20.40   16.50
  -6  12  -4   75.19   21.30
  -6  12  -4   66.79   20.30
  -7  12  -4  134.19   27.10
  -7  12  -4  169.98   27.90
   3  11  -4   25.30   18.90
  -3 -11   4   45.00   22.40
  -3 -11   4   33.60   21.70
   2  11  -4  150.98   28.50
  -2 -11   4   90.09   24.30
  -2 -11   4   94.69   24.50
   1  11  -4   53.69   19.50
  -1 -11   4  104.59   24.60
  -1 -11   4  117.49   24.80
   0  11  -4   28.50   17.40
   0 -11   4  -10.70   15.20
   0 -11   4   -9.80   16.30
  -1  11  -4   49.00   18.40
   1 -11   4  132.69   26.50
  -2  11  -4   35.30   17.70
   2 -11   4   65.49   21.40
  -3  11  -4   -0.60   11.70
  -3  11  -4   27.80   17.60
   3 -11   4   16.40   18.40
  -4  11  -4  116.59   20.10
  -4  11  -4   99.09   22.10
   4 -11   4  140.59   26.50
  -5  11  -4  168.98   26.80
  -5  11  -4  184.68   25.90
   5 -11   4  145.59   27.30
  -6  11  -4   13.50   16.30
  -6  11  -4   28.80   15.30
  -7  11  -4   28.00   17.10
  -7  11  -4   52.49   19.50
  -8  11  -4   76.39   23.40
   4  10  -4  122.29   27.00
  -4 -10   4  133.79   27.30
  -4 -10   4  112.99   27.60
   3  10  -4   32.80   17.40
  -3 -10   4   40.10   20.00
  -3 -10   4   55.29   21.60
   2  10  -4   -2.50   16.20
  -2 -10   4    5.70   17.80
  -2 -10   4  -12.00   15.50
   1  10  -4  197.98   30.30
  -1 -10   4  201.78   29.30
  -1 -10   4  168.78   27.60
   0  10  -4  186.08   29.00
   0 -10   4  202.68   30.30
   0 -10   4  162.68   26.70
  -1  10  -4   48.10   17.90
   1 -10   4   74.49   20.10
   1 -10   4   34.50   17.90
  -2  10  -4   41.80   12.70
  -2  10  -4   48.60   18.30
   2 -10   4   53.59   19.90
  -3  10  -4  334.07   31.00
  -3  10  -4  370.16   27.80
   3 -10   4  385.46   36.70
  -4  10  -4  127.39   21.40
  -4  10  -4   87.09   17.10
   4 -10   4  142.39   25.40
  -5  10  -4   16.50   14.40
  -5  10  -4   -2.20   11.80
   5 -10   4   17.60   18.20
  -6  10  -4  233.48   28.30
  -6  10  -4  140.79   24.30
  -7  10  -4   40.20   18.00
  -7  10  -4   37.10   15.40
  -8  10  -4  -16.60   14.20
  -9  10  -4  229.08   34.60
   6   9  -4   91.89   23.90
  -6  -9   4  120.59   26.70
  -6  -9   4   54.69   24.80
  -6  -9   4   87.29   21.50
   5   9  -4  149.88   27.70
  -5  -9   4  150.88   29.00
  -5  -9   4   84.39   24.10
  -5  -9   4  158.68   29.00
   4   9  -4   -7.00   15.00
  -4  -9   4   -8.30   16.20
  -4  -9   4   -9.10   12.20
  -4  -9   4  -20.00   14.80
   3   9  -4  107.19   22.60
  -3  -9   4  137.09   26.20
  -3  -9   4  120.59   20.50
  -3  -9   4  154.78   27.50
   2   9  -4  218.18   29.60
  -2  -9   4  193.88   29.60
  -2  -9   4  146.39   23.60
  -2  -9   4  263.47   29.40
   1   9  -4    0.80   13.60
  -1  -9   4    0.90   10.70
  -1  -9   4   -7.80   12.80
  -1  -9   4    2.70   14.30
   0   9  -4   33.40   15.90
   0  -9   4   15.50   15.10
   0  -9   4   48.20   18.70
   0  -9   4   53.09   17.80
  -1   9  -4  196.58   26.30
  -1   9  -4  212.08   19.20
   1  -9   4  252.57   28.40
   1  -9   4  252.37   30.30
  -2   9  -4   63.59   13.20
  -2   9  -4   65.89   17.70
   2  -9   4   58.29   18.70
  -3   9  -4   57.39   16.60
  -3   9  -4   23.00   11.70
   3  -9   4   45.20   18.40
  -4   9  -4  314.77   26.10
  -4   9  -4  314.97   26.90
   4  -9   4  313.57   32.90
  -5   9  -4  346.67   29.10
  -5   9  -4  270.17   26.30
   5  -9   4  355.86   34.50
  -6   9  -4   -2.90   11.30
  -6   9  -4   21.00   14.00
  -7   9  -4   99.59   21.00
  -7   9  -4   63.29   16.90
  -8   9  -4  149.69   25.90
  -9   9  -4   31.50   19.00
 -10   9  -4   43.00   21.90
 -10   9  -4   54.09   21.40
  -7  -8   4  109.79   26.90
  -7  -8   4   41.70   20.60
  -7  -8   4   98.49   23.60
   6   8  -4    4.70   16.40
  -6  -8   4    3.10   16.50
  -6  -8   4   -4.60   15.30
  -6  -8   4    6.30   16.70
   5   8  -4   32.30   17.80
  -5  -8   4   42.80   20.30
  -5  -8   4   58.99   20.20
  -5  -8   4   71.99   19.10
   4   8  -4  229.58   29.90
  -4  -8   4  185.18   30.60
  -4  -8   4  166.28   24.50
  -4  -8   4  212.88   29.20
   3   8  -4  104.69   20.60
  -3  -8   4  100.29   20.20
  -3  -8   4  112.49   20.70
  -3  -8   4  127.59   23.80
   2   8  -4   81.59   18.30
  -2  -8   4   33.30   12.80
  -2  -8   4   48.60   18.30
  -2  -8   4   60.09   16.70
   1   8  -4  500.65   33.20
  -1  -8   4  430.06   31.70
  -1  -8   4  422.96   26.70
  -1  -8   4  406.96   32.20
   0   8  -4  180.38   22.30
   0   8  -4  207.98   16.90
   0  -8   4  219.28   25.60
   0  -8   4  208.48   27.00
   0  -8   4  233.68   20.80
  -1   8  -4   48.60   11.50
  -1   8  -4   67.89   16.50
   1  -8   4   54.99   12.90
   1  -8   4   79.09   19.20
   1  -8   4   52.69   15.00
  -2   8  -4  687.23   35.00
  -2   8  -4  585.74   28.70
   2  -8   4  654.93   30.10
   2  -8   4  690.43   38.00
  -3   8  -4  472.75   29.10
  -3   8  -4  505.15   27.90
   3  -8   4  440.66   24.20
   3  -8   4  483.65   35.70
  -4   8  -4    1.20   10.20
  -4   8  -4  -11.00   10.40
   4  -8   4    9.50   15.60
   4  -8   4    2.70    8.20
  -5   8  -4  362.96   24.60
  -5   8  -4  349.47   28.20
  -6   8  -4  318.17   28.80
  -6   8  -4  309.37   23.70
  -7   8  -4   -1.70   12.60
  -7   8  -4    2.30   16.70
  -8   8  -4   49.00   18.50
  -9   8  -4   81.29   21.10
 -10   8  -4   46.00   20.80
 -10   8  -4   44.60   19.70
  -7  -7   4   94.99   23.90
  -7  -7   4   68.69   21.50
  -7  -7   4  158.28   28.60
   6   7  -4  198.78   29.70
  -6  -7   4  133.09   26.60
  -6  -7   4  171.38   27.80
  -6  -7   4  167.28   27.60
   5   7  -4   57.49   18.60
  -5  -7   4   31.30   16.20
  -5  -7   4   90.39   19.50
  -5  -7   4   49.00   18.40
   4   7  -4   53.89   17.70
  -4  -7   4   44.40   17.50
  -4  -7   4   66.99   17.50
  -4  -7   4   52.29   16.00
   3   7  -4  480.15   33.20
  -3  -7   4  551.14   36.60
  -3  -7   4  539.05   33.40
  -3  -7   4  520.55   35.40
   2   7  -4  554.64   34.10
  -2  -7   4  548.55   35.60
  -2  -7   4  561.64   31.30
  -2  -7   4  561.04   32.60
   1   7  -4   -5.40   11.20
  -1  -7   4  -11.10   11.70
  -1  -7   4    3.70    8.80
  -1  -7   4    0.30   11.00
   0   7  -4  345.67   18.50
   0   7  -4  322.27   25.80
   0  -7   4  401.56   29.40
   0  -7   4  374.06   22.50
   0  -7   4  374.26   27.60
  -1   7  -4  579.54   31.20
  -1   7  -4  634.64   26.40
   1  -7   4  651.33   36.00
   1  -7   4  606.74   27.60
  -2   7  -4   26.10    9.60
  -2   7  -4   15.40   11.50
   2  -7   4   34.20   10.60
   2  -7   4   34.70   14.70
  -3   7  -4  313.77   22.90
  -3   7  -4  450.45   25.30
   3  -7   4  376.76   22.10
   3  -7   4  397.66   30.70
  -4   7  -4  673.53   32.80
  -4   7  -4  629.24   29.20
   4  -7   4  630.14   37.30
   4  -7   4  643.04   27.90
  -5   7  -4   12.80    9.70
  -5   7  -4   31.20   13.30
   5  -7   4   10.60    9.40
  -6   7  -4  150.38   23.70
  -6   7  -4  183.18   18.40
  -7   7  -4  299.07   29.40
  -8   7  -4  117.09   22.80
  -9   7  -4   -6.70   14.30
  -9   7  -4   -4.60   17.10
 -10   7  -4   97.79   23.50
 -10   7  -4  131.69   29.20
  -8  -6   4  183.88   30.50
  -8  -6   4  193.48   35.00
  -8  -6   4  228.38   34.70
  -7  -6   4   70.99   20.00
  -7  -6   4   52.69   18.60
  -7  -6   4   78.69   21.50
   6   6  -4   32.60   17.00
  -6  -6   4   32.10   15.90
  -6  -6   4   30.80   16.20
  -6  -6   4   30.00   17.30
   5   6  -4  247.88   28.00
  -5  -6   4  347.57   30.70
  -5  -6   4  283.37   28.80
  -5  -6   4  316.97   28.40
   4   6  -4  241.18   26.50
  -4  -6   4  267.37   26.10
  -4  -6   4  258.27   25.20
  -4  -6   4  223.08   27.00
   3   6  -4   15.70   13.20
  -3  -6   4   -1.30    9.80
  -3  -6   4   -1.90   10.50
  -3  -6   4   -3.80   10.40
   2   6  -4  897.61   23.40
   2   6  -4  868.31   38.70
  -2  -6   4  915.21   40.50
  -2  -6   4  875.31   37.40
  -2  -6   4  897.01   37.40
   1   6  -4 1538.65   50.69
   1   6  -4 1546.35   39.10
  -1  -6   4 1524.95   49.70
  -1  -6   4 1695.83   54.79
  -1  -6   4 1624.24   49.60
   0   6  -4  100.39   17.30
   0   6  -4   98.49   11.40
   0  -6   4  124.79   20.40
   0  -6   4  117.49   14.80
   0  -6   4  124.59   18.20
  -1   6  -4  587.54   28.30
  -1   6  -4  551.54   23.70
   1  -6   4  564.24   26.00
   1  -6   4  549.85   30.00
  -2   6  -4  719.23   29.20
  -2   6  -4  806.42   31.60
   2  -6   4  754.02   36.60
   2  -6   4  758.92   30.70
  -3   6  -4  270.27   19.70
  -3   6  -4  255.97   20.50
   3  -6   4  267.07   19.30
   3  -6   4  301.97   26.10
  -4   6  -4   39.30   12.50
  -4   6  -4   49.70   10.60
   4  -6   4   50.39   10.90
   4  -6   4   67.09   16.00
  -5   6  -4  598.14   31.70
  -5   6  -4  658.93   26.80
   5  -6   4  611.84   29.10
  -6   6  -4  296.27   26.00
  -6   6  -4  249.48   17.60
  -7   6  -4   -4.60   12.00
  -8   6  -4  299.07   28.10
  -8   6  -4  251.47   32.40
  -9   6  -4  343.27   37.60
  -9   6  -4  304.37   32.60
 -10   6  -4   35.60   17.70
 -10   6  -4   29.00   18.50
 -11   6  -4   58.39   20.90
 -11   6  -4   76.19   21.50
  -9  -5   4   66.29   23.40
  -9  -5   4  101.39   25.90
  -9  -5   4   65.79   21.10
  -8  -5   4   30.40   18.00
  -8  -5   4   17.90   17.90
  -8  -5   4   55.19   19.90
  -7  -5   4  312.57   33.20
  -7  -5   4  266.57   29.60
  -7  -5   4  221.28   28.50
  -6  -5   4  186.38   26.90
  -6  -5   4  132.39   22.50
  -6  -5   4  186.08   25.60
   5   5  -4   11.60   12.60
  -5  -5   4    6.70   11.60
  -5  -5   4    2.70   12.50
  -5  -5   4   14.80   12.70
   4   5  -4  457.75   30.40
  -4  -5   4  548.95   32.60
  -4  -5   4  539.35   29.90
  -4  -5   4  545.55   33.20
   3   5  -4  834.62   20.80
   3   5  -4  889.41   37.90
  -3  -5   4  864.21   38.90
  -3  -5   4  868.01   35.90
  -3  -5   4  863.41   37.80
   2   5  -4  355.76   11.40
   2   5  -4  377.96   24.60
   2   5  -4  348.07   11.40
  -2  -5   4  303.57   24.30
  -2  -5   4  364.26   23.40
  -2  -5   4  365.66   23.80
   1   5  -4  185.88   19.20
   1   5  -4  171.38   10.70
  -1  -5   4  164.08   16.90
  -1  -5   4  155.08   16.90
  -1  -5   4  183.88   19.00
   0   5  -4  923.91   34.10
   0   5  -4  940.71   28.00
   0  -5   4  883.61   33.20
   0  -5   4  952.90   36.80
   0  -5   4  921.01   32.60
  -1   5  -4  936.41   32.70
  -1   5  -4  878.01   29.40
   1  -5   4  855.01   32.30
   1  -5   4  897.91   36.50
  -2   5  -4   49.99   10.30
  -2   5  -4   48.80   10.20
   2  -5   4   35.10   13.10
   2  -5   4   56.39   11.50
  -3   5  -4  575.64   27.10
  -3   5  -4  563.24   23.40
   3  -5   4  571.24   31.00
   3  -5   4  561.94   25.20
  -4   5  -4  758.72   32.90
  -4   5  -4  722.43   26.30
   4  -5   4  755.82   30.60
  -5   5  -4   19.70    7.60
  -5   5  -4   37.30   11.10
   5  -5   4   44.50   11.20
  -6   5  -4  107.49   11.90
  -6   5  -4  125.49   19.00
  -7   5  -4  354.46   31.00
  -7   5  -4  374.26   29.70
  -8   5  -4   94.49   22.60
  -8   5  -4   79.89   18.20
  -9   5  -4  222.58   29.10
  -9   5  -4  244.08   31.30
 -10   5  -4  342.97   35.70
 -10   5  -4  344.97   34.10
 -11   5  -4   50.69   20.90
 -11   5  -4   61.49   25.00
 -10  -4   4    1.20   16.60
 -10  -4   4   29.20   20.60
  -9  -4   4  357.56   38.40
  -9  -4   4  269.47   36.30
  -9  -4   4  343.77   36.60
  -8  -4   4  238.78   28.80
  -8  -4   4  265.07   32.60
  -8  -4   4  319.67   34.50
  -7  -4   4   25.40   15.40
  -7  -4   4    6.90   13.80
  -7  -4   4   10.90   13.70
  -6  -4   4  171.28   25.10
  -6  -4   4  155.48   22.60
  -6  -4   4  208.98   25.90
  -5  -4   4  625.24   35.20
  -5  -4   4  607.44   35.10
  -5  -4   4  586.44   32.00
   4   4  -4   64.69   14.30
   4   4  -4   48.50    5.70
  -4  -4   4   38.60   11.30
  -4  -4   4   35.70   11.90
  -4  -4   4   64.19   14.20
   3   4  -4  141.69   18.40
   3   4  -4  102.59    8.20
  -3  -4   4  103.79   17.30
  -3  -4   4  100.69   15.20
  -3  -4   4  132.59   19.10
   2   4  -4  627.84   29.00
  -2  -4   4  665.43   30.30
  -2  -4   4  636.84   26.60
  -2  -4   4  745.43   30.50
   1   4  -4    8.20    4.50
   1   4  -4    2.20    8.50
  -1  -4   4   13.30    8.40
  -1  -4   4    7.20    7.30
  -1  -4   4    4.50    8.40
   0   4  -4   11.20    5.80
   0   4  -4   17.90    8.70
   0  -4   4   17.50    8.50
   0  -4   4   20.10    7.90
   0  -4   4   35.90   11.30
  -1   4  -4 2217.08   55.09
  -1   4  -4 2163.18   53.29
   1  -4   4 2223.28   57.59
   1  -4   4 2225.78   59.39
  -2   4  -4  500.45   22.40
  -2   4  -4  492.75   20.10
   2  -4   4  472.15   23.90
   2  -4   4  507.55   27.40
  -3   4  -4   10.00    6.40
  -3   4  -4    0.90    8.30
   3  -4   4   -4.80   10.10
   3  -4   4   10.00    8.30
  -4   4  -4  759.22   31.90
  -4   4  -4  800.42   24.30
   4  -4   4  770.52   31.90
  -5   4  -4  795.42   23.60
  -5   4  -4  785.02   34.20
  -6   4  -4  217.58   25.80
  -6   4  -4  214.48   22.70
  -6   4  -4  217.38   11.80
  -7   4  -4   89.39   19.20
  -7   4  -4   44.60   13.60
  -8   4  -4  710.53   38.90
  -8   4  -4  721.03   45.80
  -9   4  -4  150.18   25.80
  -9   4  -4  206.58   31.60
 -10   4  -4    3.00   14.50
 -10   4  -4   10.50   19.30
 -11   4  -4  221.98   37.40
 -11   4  -4  198.18   31.20
 -10  -3   4  146.69   26.90
 -10  -3   4  198.28   30.80
 -10  -3   4  265.87   36.30
  -9  -3   4    2.00   13.90
  -9  -3   4   10.10   16.40
  -9  -3   4    3.30   14.70
  -8  -3   4  207.18   28.30
  -8  -3   4  188.98   29.70
  -8  -3   4  145.69   24.50
  -7  -3   4  498.15   37.20
  -7  -3   4  567.74   34.70
  -7  -3   4  592.64   35.90
  -6  -3   4  201.28   25.10
  -6  -3   4  146.19   19.30
  -6  -3   4  201.88   24.50
   5   3  -4  122.89    9.50
  -5  -3   4  169.88   20.80
  -5  -3   4  132.79   17.50
  -5  -3   4  182.48   20.70
   4   3  -4  688.33   32.00
   4   3  -4  696.53   20.60
  -4  -3   4  717.73   29.40
  -4  -3   4  762.42   33.50
  -4  -3   4  682.63   32.40
   3   3  -4  935.91   34.50
   3   3  -4  897.01   24.70
  -3  -3   4  890.61   34.50
  -3  -3   4  898.61   30.90
  -3  -3   4  955.70   36.00
   2   3  -4  293.57   19.90
  -2  -3   4  283.47   16.00
  -2  -3   4  237.08   18.50
  -2  -3   4  259.27   18.30
   1   3  -4 1607.64   43.80
   1   3  -4 1631.54   35.30
  -1  -3   4 1513.45   43.70
  -1  -3   4 1501.15   44.40
  -1  -3   4 1580.94   39.80
   0   3  -4 2794.72   59.39
   0   3  -4 2657.13   62.99
   0  -3   4 2703.13   65.69
   0  -3   4 2664.93   64.99
  -1   3  -4  125.29   12.70
  -1   3  -4  138.49   11.50
   1  -3   4  102.79   16.30
   1  -3   4  151.58   16.10
  -2   3  -4 1580.54   43.10
  -2   3  -4 1507.65   37.60
   2  -3   4 1530.55   44.20
   2  -3   4 1563.04   46.20
  -3   3  -4 1286.97   31.40
  -3   3  -4 1294.97   40.30
   3  -3   4 1276.27   40.30
  -4   3  -4  134.89    8.60
  -4   3  -4  134.89   16.80
   4  -3   4  118.69   15.90
  -5   3  -4   21.00    4.30
  -5   3  -4   23.60   11.40
  -5   3  -4   30.30   12.70
  -6   3  -4  808.32   37.60
  -6   3  -4  850.81   42.20
  -7   3  -4  451.75   35.50
  -7   3  -4  506.55   32.20
  -8   3  -4   24.50   14.30
  -8   3  -4   -4.30   14.50
  -9   3  -4  209.98   32.30
  -9   3  -4  213.08   27.20
 -10   3  -4  190.48   28.70
 -10   3  -4  190.48   33.80
 -11   3  -4    4.20   16.60
 -11   3  -4   -0.50   18.50
 -11   3  -4    5.50   16.40
 -10  -2   4   69.19   22.40
 -10  -2   4   97.79   24.00
 -10  -2   4  105.39   22.80
  -9  -2   4  307.37   34.50
  -9  -2   4  300.67   31.50
  -9  -2   4  346.97   33.70
  -8  -2   4  344.37   33.30
  -8  -2   4  348.77   29.70
  -8  -2   4  348.57   31.40
  -7  -2   4   72.29   17.80
  -7  -2   4   50.89   15.20
  -7  -2   4   34.30   13.10
   6   2  -4  889.31   28.00
  -6  -2   4  898.01   39.60
  -6  -2   4  876.61   24.00
  -6  -2   4  899.61   37.10
   5   2  -4 1261.27   34.00
  -5  -2   4 1249.38   47.40
  -5  -2   4 1219.18   43.90
  -5  -2   4 1252.67   41.20
  -5  -2   4 1284.97   28.30
   4   2  -4  225.88   12.80
  -4  -2   4  226.78   20.80
  -4  -2   4  220.08   19.50
  -4  -2   4  215.38   15.70
   3   2  -4 1482.25   37.10
  -3  -2   4 1510.05   44.70
  -3  -2   4 1522.75   39.60
  -3  -2   4 1525.15   46.40
   2   2  -4 2918.61   70.49
   2   2  -4 3073.49   58.59
  -2  -2   4 2995.80   72.39
  -2  -2   4 3058.99   64.69
  -2  -2   4 2902.61   69.99
  -2  -2   4 3073.29   58.49
   1   2  -4  207.18   10.90
   1   2  -4  219.28   11.30
   1   2  -4  234.98   15.50
  -1  -2   4  239.98   16.20
  -1  -2   4  222.38   10.20
  -1  -2   4  222.68   11.00
  -1  -2   4  227.48   16.60
   0   2  -4  790.52   23.70
   0   2  -4  818.62   25.10
   0  -2   4  829.92   28.20
   0  -2   4  851.41   28.90
  -1   2  -4  911.01   24.90
  -1   2  -4  938.51   28.30
   1  -2   4  954.00   30.80
   1  -2   4  894.41   31.50
  -2   2  -4  155.48   14.90
  -2   2  -4  187.48    9.30
   2  -2   4  181.38    9.40
   2  -2   4  172.58   16.40
  -3   2  -4  994.50   34.50
  -3   2  -4 1009.30   22.20
  -3   2  -4  958.50   35.80
   3  -2   4 1041.70   35.70
   3  -2   4 1016.80   22.30
  -4   2  -4 1458.25   45.80
  -4   2  -4 1537.35   49.60
   4  -2   4 1522.55   48.30
  -5   2  -4  631.74   33.90
  -5   2  -4  460.75   26.90
  -6   2  -4   46.50   12.60
  -6   2  -4   36.50   14.70
  -7   2  -4  389.36   33.90
  -7   2  -4  348.67   27.20
  -8   2  -4  338.07   29.20
  -8   2  -4  382.76   35.90
  -9   2  -4   42.50   20.20
  -9   2  -4   35.90   15.50
 -10   2  -4   85.19   21.30
 -10   2  -4  104.69   25.70
 -10   2  -4   91.29   23.70
 -11   2  -4  163.48   28.50
 -11   2  -4  103.19   27.40
 -11   2  -4  132.59   28.30
 -11  -1   4  149.49   28.80
 -11  -1   4  149.19   27.20
 -11  -1   4  134.19   25.80
 -10  -1   4   75.09   20.30
 -10  -1   4   93.59   20.60
 -10  -1   4   93.19   22.90
  -9  -1   4    3.10   12.90
  -9  -1   4  -12.80   11.00
  -9  -1   4  -13.90   13.20
  -8  -1   4  185.58   26.80
  -8  -1   4  243.98   25.20
  -8  -1   4  186.08   24.90
   7   1  -4  411.46   21.40
  -7  -1   4  439.86   29.10
  -7  -1   4  405.36   30.70
  -7  -1   4  391.96   26.50
  -7  -1   4  392.46   18.20
   6   1  -4   33.80    8.20
  -6  -1   4   23.70    6.20
  -6  -1   4   31.50   12.60
  -6  -1   4   14.50    9.70
  -6  -1   4   26.60   11.40
   5   1  -4  717.93   24.90
  -5  -1   4  673.63   28.50
  -5  -1   4  765.72   21.20
  -5  -1   4  783.72   35.10
  -5  -1   4  744.63   30.60
   4   1  -4 1931.91   47.70
  -4  -1   4 2008.10   42.30
  -4  -1   4 2007.80   49.99
  -4  -1   4 1924.81   53.09
  -4  -1   4 1920.11   55.99
  -4  -1   4 1946.01   42.10
   3   1  -4  141.29   11.50
  -3  -1   4  165.78   16.30
  -3  -1   4  121.39   13.20
  -3  -1   4  142.19   10.70
  -3  -1   4  145.89    7.60
   2   1  -4  757.52   24.50
   2   1  -4  789.22   19.80
   2   1  -4  817.42   19.90
  -2  -1   4  773.92   25.70
  -2  -1   4  817.52   19.80
  -2  -1   4  789.22   20.20
  -2  -1   4  829.32   28.60
   1   1  -4  664.03   15.60
   1   1  -4  657.13   20.10
  -1  -1   4  660.23   24.90
  -1  -1   4  638.54   22.00
   0   1  -4  739.73   23.80
   0  -1   4  766.62   27.20
   0  -1   4  734.73   24.00
  -1   1  -4   65.59   11.20
  -1   1  -4   44.90    9.50
   1  -1   4   44.70   10.90
   1  -1   4   37.10    5.60
  -2   1  -4 3194.28   73.09
  -2   1  -4 3193.18   74.29
   2  -1   4 3073.89   74.19
  -3   1  -4 3425.16   80.39
  -3   1  -4 3384.26   84.09
   3  -1   4 3434.76   82.59
  -4   1  -4   20.20   11.30
  -4   1  -4   11.30    9.00
  -5   1  -4  755.92   33.00
  -5   1  -4  705.23   35.80
  -6   1  -4  554.24   30.70
  -6   1  -4  585.64   34.90
  -7   1  -4   -2.40   11.60
  -7   1  -4    7.90   12.70
  -8   1  -4  204.08   28.10
  -8   1  -4  225.88   27.00
  -8   1  -4  279.17   30.30
  -9   1  -4  339.47   33.90
  -9   1  -4  313.17   37.30
  -9   1  -4  319.27   31.20
 -10   1  -4   28.10   21.60
 -10   1  -4   63.59   19.90
 -10   1  -4   19.00   19.80
 -11   0   4   19.40   16.80
 -11   0   4   13.80   14.70
 -11   0   4    4.70   15.20
 -10   0   4  279.87   31.00
 -10   0   4  253.87   30.20
 -10   0   4  241.48   32.60
  -9   0   4  369.36   33.50
  -9   0   4  364.86   32.10
  -9   0   4  312.67   27.90
   8   0  -4   64.69   12.40
  -8   0   4   53.79   15.00
  -8   0   4   34.50    9.30
  -8   0   4   25.70   14.10
  -8   0   4   39.30   13.90
   7   0  -4  359.66   21.40
  -7   0   4  393.86   28.80
  -7   0   4  350.86   25.00
  -7   0   4  339.97   18.10
  -7   0   4  312.17   24.60
   6   0  -4  994.00   33.80
  -6   0   4 1009.40   37.10
  -6   0   4 1014.40   30.50
  -6   0   4 1080.79   42.20
  -6   0   4  985.90   37.70
   5   0  -4  129.79   13.10
  -5   0   4  107.39   10.60
  -5   0   4  125.69   13.50
  -5   0   4  160.98   15.60
  -5   0   4  127.99   17.60
   4   0  -4 1036.50   31.50
  -4   0   4 1042.80   32.40
  -4   0   4 1012.00   35.80
  -4   0   4 1012.90   30.10
   3   0  -4 2787.22   62.09
  -3   0   4 2718.33   61.69
  -3   0   4 2783.42   58.09
  -3   0   4 2578.44   65.99
   2   0  -4 1407.76   37.00
   2   0  -4 1417.26   33.20
  -2   0   4 1396.16   34.00
  -2   0   4 1419.76   38.80
  -2   0   4 1362.76   28.50
   1   0  -4    8.50    3.10
   1   0  -4    0.40    5.20
   1   0  -4    5.10    6.50
  -1   0   4    7.30    5.40
  -1   0   4  -10.60    7.10
  -1   0   4    3.30    2.70
   0   0  -4 1394.06   37.00
   0   0  -4 1425.26   34.00
   0   0   4 1449.26   40.10
   0   0   4 1427.76   34.50
   0   0   4 1445.56   34.00
  -1   0  -4  793.72   27.40
  -1   0  -4  753.42   25.40
   1   0   4  791.12   27.60
   1   0   4  774.22   19.70
  -2   0  -4  216.48   17.40
  -2   0  -4  207.78   16.90
   2   0   4  225.68   17.90
  -3   0  -4  610.34   29.00
  -3   0  -4  618.34   27.00
   3   0   4  596.14   28.40
  -4   0  -4 1322.07   43.00
  -4   0  -4 1274.07   45.90
  -5   0  -4  163.68   22.80
  -5   0  -4  150.28   18.80
  -6   0  -4  523.45   31.20
  -6   0  -4  547.75   36.40
  -7   0  -4  529.05   39.30
  -7   0  -4  483.45   32.10
  -7   0  -4  501.05   35.00
  -8   0  -4  127.39   23.40
  -8   0  -4  106.39   24.50
  -8   0  -4  172.58   25.50
  -9   0  -4   -2.50   14.50
  -9   0  -4   17.90   17.40
  -9   0  -4    3.20   18.90
 -10   0  -4  150.38   27.10
 -10   0  -4  119.29   25.40
 -10   0  -4  172.68   32.00
 -11   1   4  229.28   30.60
 -11   1   4  264.67   32.10
 -11   1   4  192.18   31.70
 -10   1   4   17.60   14.20
 -10   1   4    1.00   13.40
 -10   1   4   -8.00   14.20
   9  -1  -4  232.88   21.90
  -9   1   4  220.68   19.30
  -9   1   4  190.98   25.10
  -9   1   4  211.68   26.30
  -9   1   4  190.48   26.60
   8  -1  -4  605.24   30.80
  -8   1   4  647.74   34.80
  -8   1   4  690.03   29.10
  -8   1   4  685.43   35.00
  -8   1   4  615.64   36.80
   7  -1  -4  346.27   22.50
  -7   1   4  330.27   18.90
  -7   1   4  341.27   26.10
  -7   1   4  292.37   23.40
  -7   1   4  316.47   22.90
   6  -1  -4   28.70    9.40
  -6   1   4   56.49   11.10
  -6   1   4   32.20   10.80
  -6   1   4   56.79   11.40
  -6   1   4   40.70    8.50
   5  -1  -4 1169.58   36.80
  -5   1   4 1169.28   37.10
  -5   1   4 1188.88   40.60
  -5   1   4 1150.98   36.50
   4  -1  -4  257.17   16.80
  -4   1   4  295.17   18.30
  -4   1   4  277.97   15.40
  -4   1   4  249.78   15.00
   3  -1  -4  736.03   25.90
  -3   1   4  763.42   26.50
  -3   1   4  719.83   21.80
   2  -1  -4  944.61   26.90
   2  -1  -4  951.90   22.80
   2  -1  -4  966.20   29.80
  -2   1   4  940.51   28.50
  -2   1   4  986.80   23.50
  -2   1   4  976.00   22.80
   1  -1  -4 2215.08   50.29
   1  -1  -4 2084.69   46.20
   1  -1  -4 2147.49   43.00
   1  -1  -4 2102.99   51.59
  -1   1   4 2046.60   51.39
  -1   1   4 2143.09   43.00
  -1   1   4 2181.58   46.30
   0  -1  -4  788.22   24.80
   0  -1  -4  800.72   26.80
   0   1   4  791.32   22.60
   0   1   4  779.12   26.80
  -1  -1  -4  712.53   26.70
  -1  -1  -4  712.33   26.70
   1   1   4  669.53   25.90
   1   1   4  700.43   19.90
  -2  -1  -4 2670.73   54.59
  -2  -1  -4 2504.85   63.79
  -2  -1  -4 2552.94   66.89
   2   1   4 2609.74   65.69
   2   1   4 2666.73   54.69
  -3  -1  -4  449.16   14.60
  -3  -1  -4  483.45   25.30
  -3  -1  -4  497.35   28.00
   3   1   4  460.95   14.90
  -4  -1  -4   89.29   14.30
  -4  -1  -4  110.99   20.20
   4   1   4  117.29    8.70
  -5  -1  -4  719.83   33.90
  -5  -1  -4  724.03   39.20
  -5  -1  -4  668.13   33.20
  -6  -1  -4  318.47   27.30
  -6  -1  -4  307.57   25.70
  -6  -1  -4  282.67   29.30
  -7  -1  -4   23.30   13.40
  -7  -1  -4   18.60   14.70
  -7  -1  -4    7.00   14.40
  -8  -1  -4  309.47   32.80
  -8  -1  -4  364.46   38.60
  -8  -1  -4  281.87   31.00
  -9  -1  -4  204.38   32.70
  -9  -1  -4  252.37   38.20
  -9  -1  -4  248.28   28.10
 -10  -1  -4  -22.90   18.30
 -10  -1  -4   -6.30   16.20
 -12   2   4   10.10   15.60
 -12   2   4   10.30   15.40
 -12   2   4   -9.00   15.80
 -11   2   4   83.39   21.40
 -11   2   4   81.59   22.10
 -11   2   4   56.19   18.90
  10  -2  -4  407.56   29.70
 -10   2   4  388.66   31.40
 -10   2   4  467.05   36.20
 -10   2   4  357.26   30.40
 -10   2   4  341.17   31.70
   9  -2  -4   94.79   16.90
  -9   2   4  123.09   22.80
  -9   2   4  134.89   20.60
  -9   2   4  131.19   24.30
  -9   2   4   93.19   14.80
   8  -2  -4  117.09   19.60
  -8   2   4   93.79   16.40
  -8   2   4  112.59   18.20
  -8   2   4  134.19   16.50
  -8   2   4   89.69   16.60
   7  -2  -4 1397.36   46.80
  -7   2   4 1421.56   49.50
  -7   2   4 1371.26   45.90
  -7   2   4 1355.46   48.10
  -7   2   4 1375.76   43.50
   6  -2  -4 1046.40   37.00
  -6   2   4 1039.60   37.60
  -6   2   4  943.81   37.20
  -6   2   4  992.10   34.80
   5  -2  -4   72.89   11.90
  -5   2   4   89.09   11.90
  -5   2   4   70.49   12.10
   4  -2  -4 3900.51   89.99
  -4   2   4 3984.60   88.59
  -4   2   4 3963.20   84.09
   3  -2  -4 1716.63   46.50
  -3   2   4 1705.33   43.10
  -3   2   4 1683.73   38.10
  -3   2   4 1756.22   47.10
   2  -2  -4   23.80    7.00
   2  -2  -4   34.40    9.20
   2  -2  -4   32.90    7.90
  -2   2   4   42.60    7.60
  -2   2   4   41.20    9.30
   1  -2  -4  427.36   18.90
   1  -2  -4  413.16   18.00
   1  -2  -4  373.96   17.90
  -1   2   4  379.56   18.00
  -1   2   4  368.66   17.70
   0  -2  -4  855.71   27.30
   0  -2  -4  804.92   28.00
   0  -2  -4  841.32   22.00
   0  -2  -4  816.92   28.20
   0   2   4  838.12   25.70
   0   2   4  778.42   26.20
  -1  -2  -4  229.68   17.50
  -1  -2  -4  213.28   13.20
  -1  -2  -4  215.38   18.00
   1   2   4  226.48   16.20
   1   2   4  241.98   13.20
  -2  -2  -4    1.10    6.90
  -2  -2  -4    3.30    8.80
  -2  -2  -4   11.70   10.20
   2   2   4   19.50    6.50
  -3  -2  -4  697.73   29.30
  -3  -2  -4  693.53   30.00
  -3  -2  -4  752.02   35.20
   3   2   4  703.63   22.80
  -4  -2  -4  429.26   31.10
  -4  -2  -4  434.86   25.70
  -4  -2  -4  413.16   25.60
   4   2   4  441.26   18.00
  -5  -2  -4   29.80   15.10
  -5  -2  -4   27.10   12.90
  -5  -2  -4   39.50   13.50
   5   2   4   50.99    8.50
  -6  -2  -4  680.53   36.10
  -6  -2  -4  655.73   37.50
  -6  -2  -4  668.53   43.30
  -7  -2  -4  384.36   29.90
  -7  -2  -4  423.06   39.50
  -7  -2  -4  439.06   34.90
  -8  -2  -4   27.20   20.10
  -8  -2  -4   32.00   16.90
  -8  -2  -4   18.40   15.30
  -9  -2  -4  135.59   31.20
  -9  -2  -4  129.59   26.20
 -12   3   4   66.09   21.80
 -12   3   4   75.29   20.90
 -12   3   4   96.79   23.40
 -11   3   4  116.69   23.10
 -11   3   4  114.49   21.10
 -11   3   4   99.09   22.40
  10  -3  -4   27.80   14.00
 -10   3   4   22.80   14.00
 -10   3   4   21.00   12.60
 -10   3   4   14.60   11.70
 -10   3   4    2.70   13.60
 -10   3   4    3.10   10.70
   9  -3  -4  389.46   28.50
  -9   3   4  354.06   26.90
  -9   3   4  385.76   27.30
  -9   3   4  379.36   25.90
  -9   3   4  359.26   30.10
  -9   3   4  340.77   28.40
   8  -3  -4  865.01   38.50
  -8   3   4  841.92   34.80
  -8   3   4  835.32   36.60
  -8   3   4  824.42   36.40
  -8   3   4  812.72   38.10
  -8   3   4  775.12   39.40
   7  -3  -4   14.60   10.80
  -7   3   4    1.20    7.20
  -7   3   4   21.80   11.20
  -7   3   4    7.50    8.00
  -7   3   4   31.20   10.80
   6  -3  -4  550.54   27.80
  -6   3   4  505.65   23.60
  -6   3   4  517.85   26.80
  -6   3   4  496.65   25.30
   5  -3  -4 2121.09   58.09
  -5   3   4 2043.30   54.29
  -5   3   4 2078.99   57.69
   4  -3  -4  419.86   22.80
  -4   3   4  400.16   18.30
  -4   3   4  377.76   21.80
   3  -3  -4  109.39   14.50
  -3   3   4  106.29   14.90
  -3   3   4  110.09   10.10
  -3   3   4   99.79    8.20
   2  -3  -4 1634.74   42.90
   2  -3  -4 1573.04   43.70
  -2   3   4 1570.54   43.60
  -2   3   4 1638.44   39.40
   1  -3  -4  298.17   18.20
   1  -3  -4  304.67   10.70
   1  -3  -4  299.67   16.80
   1  -3  -4  296.37   18.30
  -1   3   4  332.87   14.90
  -1   3   4  313.77   17.80
  -1   3   4  312.67   10.30
   0  -3  -4 1060.19   36.90
   0  -3  -4 1119.09   32.50
   0  -3  -4 1052.89   34.20
   0  -3  -4 1118.49   29.00
   0   3   4 1147.39   33.00
   0   3   4 1126.69   32.70
  -1  -3  -4 1665.13   49.30
  -1  -3  -4 1557.24   45.20
  -1  -3  -4 1596.54   41.70
  -1  -3  -4 1536.35   41.50
   1   3   4 1582.84   41.80
  -2  -3  -4 1483.65   43.60
  -2  -3  -4 1514.25   50.49
  -2  -3  -4 1477.45   44.90
   2   3   4 1531.15   40.80
  -3  -3  -4   12.80   10.10
  -3  -3  -4    8.30    8.90
  -3  -3  -4   10.80   10.70
   3   3   4   23.70    8.00
  -4  -3  -4  119.59   17.80
  -4  -3  -4  104.09   16.10
  -4  -3  -4  128.19   21.60
   4   3   4  123.39   13.90
  -5  -3  -4  770.02   43.10
  -5  -3  -4  830.42   39.80
  -5  -3  -4  881.71   37.40
   5   3   4  794.22   29.50
  -6  -3  -4    2.80   16.10
  -6  -3  -4   15.00   12.70
  -6  -3  -4   21.40   13.60
  -7  -3  -4  112.79   21.80
  -7  -3  -4  148.39   28.20
  -7  -3  -4  169.78   24.30
  -8  -3  -4  274.87   33.20
  -8  -3  -4  270.17   39.40
  -9  -3  -4   -8.70   15.60
  -9  -3  -4  -38.60   17.30
 -12   4   4   30.50   15.50
 -12   4   4   -6.30   15.40
 -12   4   4   -8.00   13.10
 -11   4   4  223.48   26.80
 -11   4   4  197.88   24.70
 -11   4   4  224.08   32.20
 -11   4   4  259.57   29.40
  10  -4  -4  311.17   28.70
 -10   4   4  268.77   23.70
 -10   4   4  284.27   26.70
 -10   4   4  282.37   31.20
 -10   4   4  290.77   26.60
 -10   4   4  244.28   26.80
   9  -4  -4   30.70   14.30
  -9   4   4   29.30   11.90
  -9   4   4   29.20   12.30
  -9   4   4   29.90   14.40
  -9   4   4   22.80   11.20
  -9   4   4   30.30   11.90
   8  -4  -4  395.66   28.80
  -8   4   4  408.86   25.80
  -8   4   4  443.36   27.00
  -8   4   4  381.86   28.90
  -8   4   4  388.76   25.60
  -8   4   4  397.46   26.00
   7  -4  -4  182.08   21.30
  -7   4   4  159.88   17.30
  -7   4   4  184.98   19.00
   6  -4  -4   34.10   12.20
  -6   4   4   29.50   11.10
  -6   4   4   24.10    8.40
   5  -4  -4  384.96   24.20
  -5   4   4  409.66   24.10
  -5   4   4  394.26   19.20
   4  -4  -4 1071.19   37.50
  -4   4   4 1050.49   36.30
  -4   4   4 1048.90   29.40
   3  -4  -4 1473.95   44.30
   3  -4  -4 1470.35   43.10
  -3   4   4 1524.85   36.00
  -3   4   4 1464.75   44.10
  -3   4   4 1420.86   33.80
   2  -4  -4   19.10    8.50
   2  -4  -4    7.40    8.60
   2  -4  -4    5.40    4.70
  -2   4   4    3.70    3.90
  -2   4   4   13.40    9.30
  -2   4   4   14.10    5.60
   1  -4  -4  840.32   32.80
   1  -4  -4  792.32   28.40
   1  -4  -4  873.71   23.80
   1  -4  -4  911.91   30.70
  -1   4   4  849.81   30.60
  -1   4   4  825.92   25.00
   0  -4  -4  530.15   20.80
   0  -4  -4  548.35   28.10
   0  -4  -4  505.85   23.40
   0  -4  -4  488.85   19.70
   0   4   4  532.65   24.00
  -1  -4  -4   33.40   10.40
  -1  -4  -4   25.10    8.20
  -1  -4  -4   27.00   11.20
  -1  -4  -4   20.10    7.20
   1   4   4   12.10    8.30
  -2  -4  -4  943.31   34.90
  -2  -4  -4  947.21   34.10
  -2  -4  -4  996.50   29.80
  -2  -4  -4  916.61   40.80
   2   4   4  969.40   32.90
  -3  -4  -4  985.20   38.40
  -3  -4  -4  941.41   43.80
  -3  -4  -4  975.80   37.60
  -3  -4  -4 1028.70   30.90
   3   4   4  996.00   34.50
  -4  -4  -4   59.49   14.50
  -4  -4  -4   37.00   17.40
  -4  -4  -4   49.80   13.50
   4   4   4   23.90   10.40
  -5  -4  -4  385.36   27.60
  -5  -4  -4  388.16   33.90
  -5  -4  -4  427.66   31.20
   5   4   4  415.76   24.60
  -6  -4  -4  284.27   30.30
  -6  -4  -4  309.17   26.70
  -6  -4  -4  327.37   34.80
  -7  -4  -4  201.28   35.50
  -7  -4  -4  182.58   28.60
  -8  -4  -4   12.70   20.40
  -8  -4  -4   -3.80   15.30
 -12   5   4  204.98   28.50
 -12   5   4  163.08   25.60
 -12   5   4  171.28   30.20
  11  -5  -4   20.70   15.50
 -11   5   4   23.10   12.20
 -11   5   4   17.70   12.50
 -11   5   4   -0.90   15.10
 -11   5   4   17.90   12.90
  10  -5  -4  156.58   25.80
 -10   5   4  167.88   26.90
 -10   5   4  184.08   22.60
 -10   5   4  180.68   22.30
 -10   5   4  185.78   23.50
 -10   5   4  170.28   23.50
   9  -5  -4  393.46   32.00
  -9   5   4  436.56   29.10
  -9   5   4  466.65   33.80
  -9   5   4  415.16   28.60
  -9   5   4  449.95   29.50
  -9   5   4  411.56   28.00
   8  -5  -4  123.59   20.50
  -8   5   4  109.09   17.60
  -8   5   4  101.89   17.80
   7  -5  -4    6.30   11.40
  -7   5   4   -6.10    6.80
  -7   5   4   -7.20    9.20
   6  -5  -4  476.55   29.10
  -6   5   4  521.95   22.50
  -6   5   4  436.96   26.90
   5  -5  -4  405.16   25.70
  -5   5   4  408.06   25.10
  -5   5   4  422.96   17.50
   4  -5  -4    3.20    9.50
  -4   5   4   -1.30    4.00
  -4   5   4   -6.00    8.50
   3  -5  -4  656.03   17.40
   3  -5  -4  646.04   28.70
   3  -5  -4  648.84   30.20
  -3   5   4  671.83   17.90
  -3   5   4  684.83   30.10
   2  -5  -4  906.61   26.60
   2  -5  -4  887.71   32.30
   2  -5  -4  909.11   35.60
   2  -5  -4  903.61   24.30
  -2   5   4  948.01   34.10
   1  -5  -4   43.90    8.20
   1  -5  -4   58.59    9.90
   1  -5  -4   58.09   13.50
  -1   5   4   61.99   11.80
   0  -5  -4 1061.29   42.40
   0  -5  -4 1057.29   32.90
   0  -5  -4 1030.20   32.80
   0  -5  -4 1067.39   36.80
   0   5   4 1094.79   37.30
  -1  -5  -4 1619.74   47.20
  -1  -5  -4 1641.54   42.30
  -1  -5  -4 1560.64   48.60
  -1  -5  -4 1626.34   56.49
   1   5   4 1657.73   49.20
  -2  -5  -4  152.38   18.10
  -2  -5  -4  170.08   24.10
  -2  -5  -4  136.69   18.10
  -2  -5  -4  131.09   12.10
   2   5   4  158.88   17.80
  -3  -5  -4  329.37   25.40
  -3  -5  -4  332.47   16.40
  -3  -5  -4  359.66   23.60
  -3  -5  -4  364.66   32.90
   3   5   4  339.87   23.50
  -4  -5  -4  691.53   36.10
  -4  -5  -4  677.93   42.70
  -4  -5  -4  676.53   33.20
   4   5   4  654.93   31.70
  -5  -5  -4  155.18   23.90
  -5  -5  -4  245.78   23.20
  -5  -5  -4  178.88   30.80
  -6  -5  -4   -7.10   17.30
  -6  -5  -4   -2.50   13.20
  -7  -5  -4  117.89   23.30
  -7  -5  -4  113.89   26.50
  -8  -5  -4  101.69   24.00
  -8  -5  -4   68.49   26.80
 -12   6   4   66.49   18.70
 -12   6   4   44.30   20.10
 -12   6   4   54.09   17.50
  11  -6  -4  262.37   31.20
 -11   6   4  285.57   26.80
 -11   6   4  316.47   27.90
 -11   6   4  191.58   31.50
 -11   6   4  276.27   29.50
  10  -6  -4   97.59   20.60
 -10   6   4   80.19   16.90
 -10   6   4   72.89   18.20
 -10   6   4  141.69   21.80
 -10   6   4   87.59   20.80
   9  -6  -4    5.20   13.10
  -9   6   4   18.20   11.70
  -9   6   4   12.40   12.40
  -9   6   4   -0.90    9.40
   8  -6  -4  367.46   30.60
  -8   6   4  369.86   27.40
  -8   6   4  334.27   22.40
   7  -6  -4  287.07   26.30
  -7   6   4  318.47   25.10
  -7   6   4  303.07   18.90
   6  -6  -4    5.00   10.60
  -6   6   4    2.10   10.30
  -6   6   4    3.70    5.70
   5  -6  -4  507.05   28.30
  -5   6   4  522.45   29.10
  -5   6   4  516.85   16.90
   4  -6  -4  474.25   27.20
  -4   6   4  566.84   29.50
   3  -6  -4  161.18   13.10
   3  -6  -4  213.88   18.60
   3  -6  -4  184.18   21.30
  -3   6   4  194.68   20.00
   2  -6  -4  201.68   17.80
   2  -6  -4  213.78   10.50
   2  -6  -4  193.08   15.10
   2  -6  -4  201.08   22.30
  -2   6   4  210.88   18.90
   1  -6  -4 1477.45   42.30
   1  -6  -4 1489.85   52.19
   1  -6  -4 1511.15   43.80
  -1   6   4 1475.15   47.70
   0  -6  -4  482.25   23.80
   0  -6  -4  467.85   25.50
   0  -6  -4  471.75   31.20
   0  -6  -4  456.45   21.50
   0   6   4  471.45   26.70
  -1  -6  -4   45.00   11.70
  -1  -6  -4   51.49   15.20
  -1  -6  -4   64.39   10.70
  -1  -6  -4   51.19   11.60
   1   6   4   40.90   12.40
  -2  -6  -4  382.26   33.20
  -2  -6  -4  340.97   23.40
  -2  -6  -4  308.47   23.40
  -2  -6  -4  392.66   17.40
   2   6   4  373.36   25.30
  -3  -6  -4  131.39   21.20
  -3  -6  -4  131.49   24.30
  -3  -6  -4  113.49   19.30
   3   6   4  124.99   18.10
  -4  -6  -4   -1.80   17.00
  -4  -6  -4    2.60   11.90
  -4  -6  -4    8.10   10.90
   4   6   4   -1.40   11.40
  -5  -6  -4  172.48   23.50
  -5  -6  -4  113.19   26.40
  -5  -6  -4  133.09   22.10
  -6  -6  -4  119.99   23.70
  -6  -6  -4  125.09   28.50
  -7  -6  -4    9.80   16.50
  -7  -6  -4    3.60   20.80
 -12   7   4   44.50   17.30
 -12   7   4   34.10   19.80
  11  -7  -4   16.80   16.30
 -11   7   4    2.90   15.90
 -11   7   4    4.60   13.20
 -11   7   4   -1.50   12.80
 -11   7   4   -8.60   12.00
  10  -7  -4  250.87   31.30
 -10   7   4  298.87   29.40
 -10   7   4  253.07   26.80
   9  -7  -4  379.16   31.70
  -9   7   4  356.96   30.80
  -9   7   4  338.27   29.80
   8  -7  -4   13.00   12.70
  -8   7   4   -2.70   10.90
   7  -7  -4  333.37   27.30
  -7   7   4  336.87   27.30
   6  -7  -4  673.43   37.10
  -6   7   4  761.82   37.00
   5  -7  -4   46.10   14.60
  -5   7   4   44.20   12.70
   4  -7  -4   78.39   15.10
  -4   7   4   73.99   14.30
   3  -7  -4  250.27   17.60
   3  -7  -4  248.38   21.50
   3  -7  -4  257.57   25.60
  -3   7   4  233.48   22.90
   2  -7  -4   71.99   12.80
   2  -7  -4   90.49   14.70
   2  -7  -4  100.79   18.80
  -2   7   4   74.49   14.60
   1  -7  -4   59.99   17.00
   1  -7  -4   63.79   11.50
   1  -7  -4   69.79   11.90
  -1   7   4   77.09   15.90
   0  -7  -4  873.91   30.90
   0  -7  -4  932.61   35.30
   0  -7  -4  834.82   43.70
   0   7   4  880.61   39.10
  -1  -7  -4  458.95   20.70
  -1  -7  -4  457.05   27.90
  -1  -7  -4  488.35   36.40
  -1  -7  -4  478.85   28.10
   1   7   4  476.85   29.50
  -2  -7  -4  -16.50   13.50
  -2  -7  -4   -5.70   10.40
  -2  -7  -4   -1.50   10.10
   2   7   4   12.20   12.10
  -3  -7  -4  192.88   21.50
  -3  -7  -4  163.38   24.00
  -3  -7  -4  199.88   31.50
   3   7   4  192.88   25.00
  -4  -7  -4  163.98   26.70
  -4  -7  -4  158.58   29.10
  -4  -7  -4  114.69   17.50
   4   7   4  127.49   20.50
  -5  -7  -4  -17.30   12.50
  -5  -7  -4    7.70   17.90
  -6  -7  -4   80.79   25.10
  -6  -7  -4   58.89   20.70
  11  -8  -4  143.49   26.90
 -11   8   4  150.58   25.90
 -11   8   4  136.49   23.20
  10  -8  -4   18.00   17.20
 -10   8   4    4.40   13.60
 -10   8   4   10.20   14.10
   9  -8  -4  136.19   23.50
  -9   8   4  106.99   19.80
   8  -8  -4  202.38   27.60
  -8   8   4  216.58   25.30
   7  -8  -4   16.90   14.20
  -7   8   4    3.10   12.30
   6  -8  -4  254.77   26.50
  -6   8   4  223.38   25.00
   5  -8  -4  539.65   32.60
  -5   8   4  552.54   33.70
   4  -8  -4  193.18   25.70
   4  -8  -4  177.68   17.60
   4  -8  -4  181.78   21.60
  -4   8   4  215.48   23.60
   3  -8  -4   -3.10    9.40
   3  -8  -4    4.70   13.30
   3  -8  -4   -1.00    9.00
  -3   8   4    4.00   11.70
   2  -8  -4  379.46   30.30
   2  -8  -4  368.06   24.20
   2  -8  -4  384.96   24.00
  -2   8   4  369.46   27.30
   1  -8  -4  335.67   23.80
   1  -8  -4  391.16   33.60
   1  -8  -4  356.56   22.50
  -1   8   4  345.17   28.50
   0  -8  -4    2.60    8.10
   0  -8  -4   -1.70    9.80
   0  -8  -4   21.20   16.70
   0   8   4   -7.80   10.90
  -1  -8  -4  227.38   29.10
  -1  -8  -4  230.18   23.80
   1   8   4  194.38   24.90
  -2  -8  -4  261.67   26.90
  -2  -8  -4  267.47   34.70
   2   8   4  247.28   27.60
  -3  -8  -4   29.80   15.20
  -3  -8  -4   78.59   22.40
   3   8   4   36.10   15.60
  -4  -8  -4   49.99   17.40
  -4  -8  -4   39.10   21.50
   4   8   4   30.00   16.00
  -5  -8  -4  157.48   25.90
  -5  -8  -4  135.09   29.50
  11  -9  -4   35.40   19.70
 -11   9   4   20.60   17.30
 -11   9   4   56.59   18.20
  10  -9  -4  129.29   25.20
 -10   9   4  195.78   30.00
 -10   9   4  166.98   26.70
   9  -9  -4   41.20   18.60
  -9   9   4   52.89   16.30
   8  -9  -4   76.19   20.70
  -8   9   4   79.99   19.00
   7  -9  -4  377.76   33.30
  -7   9   4  320.67   30.20
   6  -9  -4  234.28   27.70
  -6   9   4  293.67   28.40
   5  -9  -4    5.70   12.90
  -5   9   4    7.50   12.60
   4  -9  -4  215.88   29.40
   4  -9  -4  187.18   22.50
  -4   9   4  167.08   25.30
   3  -9  -4  446.96   28.90
   3  -9  -4  478.35   31.40
   3  -9  -4  584.64   39.90
  -3   9   4  447.36   33.30
   2  -9  -4   -4.00    8.90
   2  -9  -4   20.50   12.20
   2  -9  -4   -7.90   13.20
  -2   9   4   10.40   13.30
   1  -9  -4  127.79   23.80
   1  -9  -4  108.59   17.60
   1  -9  -4  148.19   17.30
  -1   9   4  169.68   25.70
   0  -9  -4  257.77   33.90
   0  -9  -4  228.38   24.90
   0   9   4  224.88   29.40
  -1  -9  -4    7.30   17.10
  -1  -9  -4    2.00   12.90
   1   9   4   23.20   16.00
  -2  -9  -4   13.20   15.20
  -2  -9  -4   27.10   21.20
   2   9   4   44.40   17.10
  -3  -9  -4  174.78   31.00
  -3  -9  -4  210.88   29.10
   3   9   4  169.38   29.40
  -4  -9  -4   62.69   25.70
  -4  -9  -4   49.90   19.50
  10 -10  -4  -19.70   14.60
 -10  10   4   -6.60   15.10
 -10  10   4   29.70   17.90
   9 -10  -4  126.69   24.70
  -9  10   4   63.69   18.50
   8 -10  -4   48.00   19.80
  -8  10   4   77.69   19.30
   7 -10  -4   27.50   16.00
  -7  10   4    9.10   14.60
   6 -10  -4  167.68   26.50
  -6  10   4  175.38   25.20
   5 -10  -4  215.68   26.10
  -5  10   4  181.88   26.90
   4 -10  -4   62.99   16.00
   4 -10  -4   40.30   19.20
  -4  10   4   25.00   15.70
   3 -10  -4  225.18   23.90
   3 -10  -4  243.98   30.60
  -3  10   4  238.48   29.50
   2 -10  -4  227.68   22.50
   2 -10  -4  237.38   34.10
  -2  10   4  234.68   29.90
   1 -10  -4   81.69   22.70
  -1  10   4  129.39   23.40
   0 -10  -4   -3.20   17.90
   0  10   4   24.00   16.90
  -1 -10  -4   81.39   22.80
   1  10   4   79.99   20.60
  -2 -10  -4  135.19   29.50
   2  10   4  142.79   25.10
  -3 -10  -4  -23.70   18.30
   3  10   4    4.10   15.80
   9 -11  -4   -1.50   17.40
  -9  11   4  -14.40   13.50
   8 -11  -4   22.30   18.10
  -8  11   4   39.70   18.90
   7 -11  -4  191.08   29.80
  -7  11   4  183.08   29.10
   6 -11  -4   16.50   15.60
  -6  11   4   37.00   19.10
   5 -11  -4   42.70   17.10
  -5  11   4   32.30   16.90
   4 -11  -4  205.18   25.70
   4 -11  -4  237.28   35.60
  -4  11   4  193.48   29.30
   3 -11  -4   29.20   20.20
   3 -11  -4   21.10   18.80
  -3  11   4   -5.50   13.70
   2 -11  -4   20.60   17.00
  -2  11   4    5.70   16.50
   1 -11  -4   48.70   23.70
  -1  11   4   97.09   23.50
   0 -11  -4   53.09   24.80
   0  11   4   64.19   21.10
  -1 -11  -4   21.10   20.10
   1  11   4  -12.00   15.40
  -2 -11  -4   34.00   22.60
   2  11   4   36.90   19.50
   8 -12  -4   11.30   18.10
  -8  12   4   -4.80   16.80
   7 -12  -4   13.30   16.40
  -7  12   4   -5.70   16.70
   6 -12  -4   63.49   19.60
  -6  12   4   98.79   24.30
   5 -12  -4   -1.80   14.90
  -5  12   4   17.40   18.30
  -4  12   4   19.50   18.00
   3 -12  -4  104.09   27.20
  -3  12   4  110.99   25.50
   2 -12  -4   87.89   24.60
  -2  12   4   55.79   22.00
   1 -12  -4  -19.70   18.60
  -1  12   4   -3.20   17.70
   0 -12  -4   47.60   25.80
   0  12   4   39.00   20.40
   6 -13  -4    8.50   16.10
  -6  13   4  -25.10   16.80
  -5  13   4   42.20   21.80
  -4  13   4   31.90   22.30
   3 -13  -4   -6.50   21.00
  -3  13   4    5.60   19.70
  -2  13  -5   38.20   21.50
   2 -13   5   49.50   23.40
  -3  13  -5   18.40   19.50
   3 -13   5   66.79   25.00
  -4  13  -5  -10.30   17.90
   4 -13   5   25.50   22.00
   1  12  -5   28.50   21.10
  -1 -12   5   48.50   23.20
  -1 -12   5   35.50   22.20
   0  12  -5    1.00   18.00
   0 -12   5   50.59   21.50
  -1  12  -5  121.49   26.20
   1 -12   5   79.69   26.20
  -2  12  -5   37.10   18.40
   2 -12   5   56.59   23.90
  -3  12  -5    2.70   18.00
   3 -12   5  -14.20   18.80
  -4  12  -5  174.18   24.20
  -4  12  -5  146.69   25.80
   4 -12   5  150.88   28.80
  -5  12  -5   64.49   20.80
   5 -12   5   35.30   21.20
  -6  12  -5  -16.00   14.40
  -6  12  -5   -2.60   15.40
  -7  12  -5   40.90   20.00
   3  11  -5   23.20   19.40
  -3 -11   5   10.00   18.50
  -3 -11   5  -10.50   19.30
   2  11  -5   -3.40   16.70
  -2 -11   5   48.80   22.20
  -2 -11   5   25.90   17.90
   1  11  -5  162.78   26.90
  -1 -11   5  208.58   32.20
  -1 -11   5  149.88   29.30
   0  11  -5   56.49   21.20
   0 -11   5   56.39   21.80
   0 -11   5   87.49   24.10
  -1  11  -5   15.70   15.00
   1 -11   5    9.20   19.80
  -2  11  -5   21.70   17.80
   2 -11   5   43.70   21.50
  -3  11  -5   83.59   17.50
  -3  11  -5   91.19   21.70
   3 -11   5  128.59   26.00
  -4  11  -5   24.40   13.10
  -4  11  -5   -9.60   15.20
   4 -11   5   -0.70   16.90
  -5  11  -5   95.09   20.70
  -5  11  -5   82.09   18.70
   5 -11   5  108.29   25.30
  -6  11  -5  151.98   24.70
  -6  11  -5  118.89   21.30
  -7  11  -5    9.00   16.80
  -8  11  -5  -25.50   14.60
   4  10  -5   99.29   24.90
  -4 -10   5   53.99   23.60
  -4 -10   5   39.70   20.40
   3  10  -5  123.09   25.10
  -3 -10   5  102.79   23.50
  -3 -10   5   75.59   24.40
   2  10  -5   31.20   18.40
  -2 -10   5   26.90   19.30
  -2 -10   5   59.49   19.70
   1  10  -5   -6.20   14.60
  -1 -10   5  -12.00   13.90
  -1 -10   5    8.80   17.50
   0  10  -5  118.49   22.80
   0 -10   5   89.99   21.80
   0 -10   5   80.19   21.80
  -1  10  -5  174.48   27.70
   1 -10   5  164.88   27.80
  -2  10  -5   27.80   16.50
  -2  10  -5   49.80   13.80
   2 -10   5   10.10   17.40
  -3  10  -5   31.30   13.70
  -3  10  -5   27.00   16.60
   3 -10   5   15.60   18.20
  -4  10  -5  150.98   25.90
  -4  10  -5  147.79   23.60
   4 -10   5   82.89   23.50
  -5  10  -5  100.09   19.40
  -5  10  -5   90.99   18.60
   5 -10   5   99.19   24.10
  -6  10  -5   14.00   13.90
  -6  10  -5   20.20   15.70
  -7  10  -5  164.08   28.10
  -8  10  -5   98.99   24.50
  -9  10  -5    2.60   16.80
   6   9  -5   14.00   18.40
  -6  -9   5   -2.30   17.70
  -6  -9   5   -5.10   19.20
  -6  -9   5   32.40   32.00
   5   9  -5  164.38   28.30
  -5  -9   5  164.18   28.80
  -5  -9   5  186.48   34.10
  -5  -9   5  182.58   31.20
   4   9  -5  109.49   23.50
  -4  -9   5   95.49   19.70
  -4  -9   5  117.49   23.40
  -4  -9   5   41.90   21.60
   3   9  -5    1.30   13.60
  -3  -9   5   14.30   15.90
  -3  -9   5   18.70   17.10
  -3  -9   5   -1.20   13.10
   2   9  -5  144.59   24.50
  -2  -9   5  197.38   30.60
  -2  -9   5  115.89   22.20
  -2  -9   5  140.29   23.20
   1   9  -5  221.38   29.20
  -1  -9   5  189.18   23.30
  -1  -9   5  205.88   26.60
  -1  -9   5  155.78   25.60
   0   9  -5    5.80   12.50
   0  -9   5   12.00   11.50
   0  -9   5    9.60   14.40
   0  -9   5   20.20   16.60
  -1   9  -5  144.99   24.60
  -1   9  -5   98.69   16.80
   1  -9   5  107.09   21.90
  -2   9  -5  269.77   27.60
  -2   9  -5  280.27   23.20
   2  -9   5  330.07   34.00
  -3   9  -5  150.18   21.10
  -3   9  -5  116.79   19.80
   3  -9   5  121.19   24.50
  -4   9  -5    4.50   11.90
  -4   9  -5   14.50   10.90
   4  -9   5   11.30   16.60
  -5   9  -5  203.58   24.50
  -5   9  -5  224.38   26.00
   5  -9   5  223.88   31.90
  -6   9  -5  206.28   26.40
  -6   9  -5  155.58   21.80
  -7   9  -5    0.10   12.70
  -8   9  -5  102.79   22.20
  -9   9  -5   77.89   22.90
  -7  -8   5  101.29   24.60
  -7  -8   5   90.19   26.90
   6   8  -5  145.39   27.40
  -6  -8   5  130.29   25.10
  -6  -8   5  122.49   27.70
  -6  -8   5  184.68   32.60
   5   8  -5   21.80   16.90
  -5  -8   5   28.40   19.00
  -5  -8   5   38.20   17.30
  -5  -8   5   19.00   15.80
   4   8  -5   63.19   18.30
  -4  -8   5   99.89   21.10
  -4  -8   5   90.99   22.10
  -4  -8   5  100.49   20.00
   3   8  -5  265.87   30.10
  -3  -8   5  264.07   26.60
  -3  -8   5  249.97   28.50
  -3  -8   5  242.98   31.90
   2   8  -5   17.50   14.40
  -2  -8   5   44.70   16.00
  -2  -8   5   37.60   17.20
  -2  -8   5   20.50   12.90
   1   8  -5  144.79   24.10
  -1  -8   5  194.18   23.80
  -1  -8   5  141.99   20.80
  -1  -8   5  165.88   24.20
   0   8  -5  408.96   30.30
   0   8  -5  400.56   21.70
   0  -8   5  394.46   29.80
   0  -8   5  375.26   30.70
   0  -8   5  395.56   26.20
  -1   8  -5  130.39   16.20
  -1   8  -5  141.09   22.50
   1  -8   5  102.19   16.60
   1  -8   5  135.89   22.10
  -2   8  -5  125.69   21.10
  -2   8  -5  128.49   18.30
   2  -8   5  120.89   22.50
   2  -8   5  115.79   19.90
  -3   8  -5  650.03   33.70
  -3   8  -5  653.33   32.90
   3  -8   5  628.54   38.30
   3  -8   5  674.93   31.90
  -4   8  -5  503.75   30.80
  -4   8  -5  479.05   28.60
   4  -8   5  479.75   27.50
   4  -8   5  452.45   35.90
  -5   8  -5   -3.30   10.30
  -5   8  -5   -5.30   11.30
   5  -8   5   -0.70    9.50
  -6   8  -5  304.17   29.20
  -6   8  -5  264.57   22.20
  -7   8  -5  195.98   28.10
  -8   8  -5    5.70   15.90
  -9   8  -5   32.80   19.10
  -9   8  -5   14.00   17.50
 -10   8  -5  122.09   26.70
 -10   8  -5   64.59   23.80
  -7  -7   5  -16.50   15.30
  -7  -7   5   16.40   17.90
  -7  -7   5   -5.30   15.20
   6   7  -5   59.09   20.10
  -6  -7   5   53.39   17.30
  -6  -7   5   23.70   15.80
  -6  -7   5   60.39   20.10
   5   7  -5  223.58   28.60
  -5  -7   5  199.18   28.90
  -5  -7   5  188.68   27.70
  -5  -7   5  170.68   29.70
   4   7  -5   31.70   16.60
  -4  -7   5   68.09   17.00
  -4  -7   5   36.90   16.80
  -4  -7   5   45.50   15.60
   3   7  -5   85.09   17.70
  -3  -7   5  120.49   22.10
  -3  -7   5  147.79   23.00
  -3  -7   5  104.19   19.00
   2   7  -5  776.92   39.30
  -2  -7   5  788.62   37.50
  -2  -7   5  773.32   37.50
  -2  -7   5  723.03   41.00
   1   7  -5  408.56   18.10
   1   7  -5  379.06   27.20
  -1  -7   5  403.96   26.60
  -1  -7   5  419.36   27.60
  -1  -7   5  367.96   28.80
   0   7  -5   21.40    7.90
   0   7  -5    7.20   10.50
   0  -7   5    9.30   13.10
   0  -7   5   19.50   11.60
   0  -7   5   -0.30    9.40
  -1   7  -5  536.55   30.00
  -1   7  -5  503.15   24.60
   1  -7   5  459.45   27.30
   1  -7   5  507.85   33.60
  -2   7  -5  398.96   25.60
  -2   7  -5  380.26   24.00
   2  -7   5  373.56   29.20
   2  -7   5  386.66   25.30
  -3   7  -5    3.00    9.70
  -3   7  -5    4.30    9.20
   3  -7   5   -6.70   12.00
   3  -7   5   12.00   10.10
  -4   7  -5  626.84   32.80
  -4   7  -5  557.64   28.70
   4  -7   5  685.13   31.60
   4  -7   5  616.14   38.50
  -5   7  -5 1023.00   37.10
  -5   7  -5  941.01   42.20
   5  -7   5 1016.80   39.60
  -6   7  -5  193.78   25.50
  -6   7  -5  175.18   17.70
  -7   7  -5   93.49   19.50
  -8   7  -5  175.48   26.50
  -9   7  -5   69.39   19.50
  -9   7  -5   51.29   21.10
 -10   7  -5   -3.60   16.40
 -10   7  -5   -3.30   17.80
  -8  -6   5   62.59   22.10
  -8  -6   5  101.89   25.10
  -7  -6   5  226.48   31.50
  -7  -6   5  222.48   32.30
  -7  -6   5  263.57   32.90
  -6  -6   5  143.49   24.40
  -6  -6   5  168.08   27.40
  -6  -6   5  107.09   21.10
   5   6  -5   -2.20   12.40
  -5  -6   5   11.90   13.60
  -5  -6   5   -2.20   12.60
  -5  -6   5   18.00   13.60
   4   6  -5  444.86   32.30
  -4  -6   5  512.05   32.10
  -4  -6   5  448.26   33.70
  -4  -6   5  460.75   32.30
   3   6  -5  601.54   34.20
  -3  -6   5  505.85   31.20
  -3  -6   5  572.84   35.20
  -3  -6   5  574.54   33.70
   2   6  -5    0.80    9.80
  -2  -6   5    4.90    9.80
  -2  -6   5   18.80   10.90
  -2  -6   5   15.70   12.30
   1   6  -5  675.13   33.30
   1   6  -5  647.24   21.90
  -1  -6   5  670.23   31.10
  -1  -6   5  687.03   35.10
  -1  -6   5  584.64   29.60
   0   6  -5  757.02   33.10
   0   6  -5  691.23   25.00
   0  -6   5  676.73   30.50
   0  -6   5  684.33   30.60
   0  -6   5  701.53   35.10
  -1   6  -5  157.08   15.40
  -1   6  -5  181.58   18.70
   1  -6   5  210.58   24.30
   1  -6   5  192.78   20.00
  -2   6  -5  249.97   18.80
  -2   6  -5  254.87   19.50
   2  -6   5  276.47   26.30
   2  -6   5  256.67   21.50
  -3   6  -5  832.32   34.30
  -3   6  -5  883.01   32.80
   3  -6   5  846.62   39.00
   3  -6   5  830.92   34.20
  -4   6  -5   97.59   15.30
  -4   6  -5  100.59   16.10
   4  -6   5  107.09   19.20
   4  -6   5  101.89   17.70
  -5   6  -5  245.68   24.60
  -5   6  -5  261.07   17.80
   5  -6   5  227.88   21.80
  -6   6  -5  380.36   19.80
  -6   6  -5  378.96   29.90
  -7   6  -5  126.29   21.30
  -8   6  -5   25.00   16.00
  -8   6  -5    7.10   14.20
  -9   6  -5  208.68   31.20
  -9   6  -5  249.88   35.40
 -10   6  -5  175.48   31.50
 -10   6  -5  156.78   27.20
  -9  -5   5  269.77   35.20
  -9  -5   5  174.38   31.60
  -8  -5   5   45.60   18.80
  -8  -5   5   29.70   16.40
  -8  -5   5   39.20   18.90
  -7  -5   5   14.40   14.10
  -7  -5   5   17.30   16.30
  -7  -5   5   22.10   13.90
  -6  -5   5  254.27   26.90
  -6  -5   5  235.28   29.10
  -6  -5   5  236.48   28.60
   5   5  -5  164.88   24.40
  -5  -5   5  155.88   24.00
  -5  -5   5  189.68   23.10
  -5  -5   5  188.78   25.90
   4   5  -5   15.40   13.50
  -4  -5   5    4.30   10.60
  -4  -5   5   19.80   12.30
  -4  -5   5   28.20   11.80
   3   5  -5  292.77   14.10
   3   5  -5  311.67   25.40
  -3  -5   5  316.47   24.50
  -3  -5   5  277.47   24.00
  -3  -5   5  329.47   22.90
   2   5  -5  766.22   34.20
   2   5  -5  773.52   19.10
   2   5  -5  751.82   18.60
  -2  -5   5  784.02   30.50
  -2  -5   5  801.62   35.90
  -2  -5   5  721.83   33.00
   1   5  -5   42.90    6.70
   1   5  -5   42.80   11.20
  -1  -5   5   57.29   11.80
  -1  -5   5   52.09   10.80
  -1  -5   5   33.00   12.40
   0   5  -5  147.79   17.10
   0   5  -5  128.39   12.30
   0  -5   5   89.29   14.70
   0  -5   5  112.09   18.20
  -1   5  -5 1454.75   41.20
  -1   5  -5 1385.96   43.40
   1  -5   5 1494.75   46.80
   1  -5   5 1465.95   48.90
  -2   5  -5  434.86   21.60
  -2   5  -5  474.45   23.50
   2  -5   5  437.36   24.50
   2  -5   5  462.35   28.70
  -3   5  -5   19.20    8.00
  -3   5  -5   19.80   10.10
   3  -5   5   17.00    9.90
   3  -5   5   17.60   12.70
  -4   5  -5 1058.59   32.60
  -4   5  -5 1055.19   40.90
   4  -5   5 1107.49   40.30
  -5   5  -5  186.98   13.60
  -5   5  -5  188.28   21.70
   5  -5   5  176.38   19.60
  -6   5  -5   23.00   12.80
  -7   5  -5  311.87   28.70
  -7   5  -5  291.67   29.20
  -8   5  -5  351.46   36.30
  -8   5  -5  378.46   33.60
  -9   5  -5   46.40   18.90
  -9   5  -5   29.50   17.10
 -10   5  -5   70.69   22.40
 -10   5  -5  107.59   26.90
  -9  -4   5   50.59   20.40
  -9  -4   5    3.40   20.30
  -9  -4   5   45.20   19.80
  -8  -4   5  243.68   28.20
  -8  -4   5  277.37   33.70
  -8  -4   5  257.37   31.60
  -7  -4   5  419.96   35.40
  -7  -4   5  325.47   28.40
  -7  -4   5  397.86   34.60
  -6  -4   5   27.10   12.30
  -6  -4   5   -0.50   11.50
  -6  -4   5    6.80   13.40
  -5  -4   5  728.03   33.60
  -5  -4   5  691.73   36.80
  -5  -4   5  649.54   37.30
   4   4  -5  458.35   16.60
   4   4  -5  522.25   30.20
  -4  -4   5  483.85   25.60
  -4  -4   5  451.05   29.70
  -4  -4   5  477.95   28.90
   3   4  -5  149.69   11.60
   3   4  -5  145.89   19.20
  -3  -4   5  163.88   19.60
  -3  -4   5  139.59   15.10
  -3  -4   5  163.68   20.10
   2   4  -5  391.56   11.90
   2   4  -5  374.86   22.80
  -2  -4   5  404.36   20.00
  -2  -4   5  406.46   24.80
  -2  -4   5  448.96   25.10
   1   4  -5 1617.44   37.90
   1   4  -5 1550.84   47.20
  -1  -4   5 1639.54   49.50
  -1  -4   5 1578.84   43.50
  -1  -4   5 1646.94   48.40
   0   4  -5 1519.95   38.90
   0   4  -5 1500.95   43.90
   0  -4   5 1516.25   46.20
   0  -4   5 1555.74   47.80
  -1   4  -5  817.02   28.50
  -1   4  -5  847.82   28.10
   1  -4   5  798.32   33.90
   1  -4   5  802.92   32.60
  -2   4  -5  724.23   25.40
  -2   4  -5  727.13   28.20
   2  -4   5  766.52   33.30
   2  -4   5  690.83   30.30
  -3   4  -5  450.05   18.70
  -3   4  -5  450.75   24.50
   3  -4   5  483.95   25.80
   3  -4   5  487.25   28.60
  -4   4  -5   -5.50    8.80
  -4   4  -5    5.60    5.50
   4  -4   5    7.40    9.10
  -5   4  -5   70.59   14.60
  -5   4  -5   72.09    8.40
  -5   4  -5   45.80   13.30
   5  -4   5   53.69   13.10
  -6   4  -5  351.86   30.70
  -6   4  -5  392.36   29.00
  -7   4  -5  102.19   19.20
  -7   4  -5   57.49   18.70
  -8   4  -5  161.08   29.10
  -8   4  -5  180.38   26.40
  -9   4  -5  279.27   36.00
  -9   4  -5  330.77   32.30
 -10   4  -5   67.39   20.00
 -10   4  -5  114.69   27.10
 -10  -3   5  197.48   34.90
 -10  -3   5  215.68   33.40
  -9  -3   5  264.17   32.10
  -9  -3   5  320.87   36.20
  -9  -3   5  290.37   29.60
  -8  -3   5   11.90   13.50
  -8  -3   5   51.99   16.00
  -8  -3   5   16.50   15.70
  -7  -3   5  308.67   31.10
  -7  -3   5  344.07   30.40
  -7  -3   5  282.27   25.40
  -6  -3   5  615.44   35.80
  -6  -3   5  663.63   31.90
  -6  -3   5  614.74   37.20
   5   3  -5  134.59   10.90
  -5  -3   5  115.29   20.30
  -5  -3   5  125.29   16.40
  -5  -3   5  139.09   21.00
   4   3  -5   51.29    8.90
  -4  -3   5   46.70    9.80
  -4  -3   5   24.50   11.60
  -4  -3   5   55.29   12.70
   3   3  -5 1071.19   30.80
   3   3  -5 1094.69   38.80
  -3  -3   5 1147.89   40.60
  -3  -3   5 1097.79   33.40
  -3  -3   5 1149.48   40.20
   2   3  -5 1182.98   38.90
   2   3  -5 1157.78   26.60
  -2  -3   5 1149.08   32.80
  -2  -3   5 1253.47   40.70
  -2  -3   5 1219.38   39.50
   1   3  -5   15.80    5.50
   1   3  -5   -1.90    8.10
  -1  -3   5    0.70    5.60
  -1  -3   5   11.50    9.30
  -1  -3   5   10.80    9.10
   0   3  -5 2487.65   60.59
   0   3  -5 2561.94   57.89
   0  -3   5 2602.54   64.99
   0  -3   5 2487.15   63.99
  -1   3  -5  252.97   15.10
  -1   3  -5  263.27   16.30
   1  -3   5  252.87   20.90
   1  -3   5  247.98   19.00
  -2   3  -5  207.48   12.40
  -2   3  -5  217.28   17.20
   2  -3   5  185.98   18.10
   2  -3   5  199.48   19.50
  -3   3  -5  882.01   24.10
  -3   3  -5  904.31   33.30
   3  -3   5  873.31   34.80
  -4   3  -5 1125.29   26.00
  -4   3  -5 1181.18   43.70
  -4   3  -5 1093.09   40.60
   4  -3   5 1115.69   26.20
   4  -3   5 1044.30   40.70
  -5   3  -5  277.37   25.80
  -5   3  -5  311.37   24.50
  -6   3  -5   85.89   16.50
  -6   3  -5   80.09   18.70
  -7   3  -5  511.25   35.70
  -7   3  -5  514.35   33.50
  -8   3  -5  132.59   25.40
  -8   3  -5  165.88   25.30
  -9   3  -5  -15.20   16.20
  -9   3  -5   -2.40   14.50
 -10   3  -5  308.67   38.30
 -10   3  -5  279.47   33.60
 -10  -2   5   30.00   19.60
 -10  -2   5   18.70   16.10
  -9  -2   5  184.78   27.60
  -9  -2   5  146.49   25.70
  -9  -2   5  170.38   29.80
  -8  -2   5  586.84   37.60
  -8  -2   5  508.55   33.10
  -8  -2   5  573.54   39.70
  -7  -2   5  139.59   19.60
  -7  -2   5  134.29   23.30
  -7  -2   5  128.59   20.30
   6   2  -5   80.89   11.70
  -6  -2   5   70.49   14.90
  -6  -2   5   70.19   16.20
  -6  -2   5   91.29   16.40
   5   2  -5  939.91   29.40
  -5  -2   5  983.90   33.80
  -5  -2   5  895.11   39.30
  -5  -2   5  991.00   38.90
   4   2  -5 1242.78   34.30
  -4  -2   5 1188.88   41.60
  -4  -2   5 1274.77   45.00
  -4  -2   5 1308.77   36.40
   3   2  -5   -4.40    5.80
  -3  -2   5   -7.80    7.80
  -3  -2   5    2.00    5.30
  -3  -2   5   -2.30    8.60
   2   2  -5 1792.22   39.60
   2   2  -5 1813.72   42.00
  -2  -2   5 1853.51   51.69
  -2  -2   5 1840.72   39.40
  -2  -2   5 1825.12   48.60
  -2  -2   5 1823.52   41.00
   1   2  -5 1701.03   40.10
   1   2  -5 1619.24   37.50
  -1  -2   5 1642.24   44.10
  -1  -2   5 1664.43   47.00
   0   2  -5  148.39   13.40
   0   2  -5  140.69   12.90
   0  -2   5  185.28   16.10
   0  -2   5  170.78   17.60
  -1   2  -5  932.01   30.00
  -1   2  -5  952.70   26.40
   1  -2   5  922.51   32.00
   1  -2   5  940.51   34.50
  -2   2  -5 1282.27   38.50
  -2   2  -5 1270.57   39.40
   2  -2   5 1317.57   42.20
  -3   2  -5  450.65   24.80
  -3   2  -5  396.26   22.00
   3  -2   5  415.66   24.70
   3  -2   5  429.26   11.30
  -4   2  -5  198.68   21.60
  -4   2  -5  188.08   19.00
   4  -2   5  170.08   19.10
  -5   2  -5  757.42   34.30
  -5   2  -5  722.83   37.90
  -6   2  -5  405.56   28.70
  -6   2  -5  477.55   32.70
  -7   2  -5   -0.30   11.40
  -7   2  -5  -12.60   10.60
  -8   2  -5  397.06   32.20
  -8   2  -5  331.37   35.30
  -9   2  -5  187.38   28.70
  -9   2  -5  262.67   35.70
 -10   2  -5  -18.70   15.20
 -10   2  -5  -20.60   13.20
 -10   2  -5   41.60   21.50
 -11  -1   5   59.09   19.80
 -11  -1   5   30.20   20.00
 -10  -1   5  271.07   31.60
 -10  -1   5  257.37   34.30
 -10  -1   5  285.97   30.50
  -9  -1   5   95.59   19.60
  -9  -1   5  105.99   20.00
  -9  -1   5  104.69   22.80
  -8  -1   5   30.80   12.90
  -8  -1   5   49.70   15.20
  -8  -1   5   20.60   14.30
   7   1  -5  630.44   26.90
  -7  -1   5  605.74   33.60
  -7  -1   5  638.34   31.70
  -7  -1   5  581.54   36.10
   6   1  -5  545.05   23.60
  -6  -1   5  548.65   31.20
  -6  -1   5  571.54   26.90
  -6  -1   5  539.75   18.50
  -6  -1   5  596.94   30.30
   5   1  -5   64.29   11.10
  -5  -1   5   43.50   12.00
  -5  -1   5   58.89    7.10
  -5  -1   5   65.29   11.90
  -5  -1   5   61.89   10.20
   4   1  -5  471.45   20.10
  -4  -1   5  472.55   18.70
  -4  -1   5  432.46   22.50
  -4  -1   5  490.85   26.60
   3   1  -5 2431.36   59.99
   3   1  -5 2607.94   54.39
  -3  -1   5 2621.44   54.19
  -3  -1   5 2550.04   66.09
  -3  -1   5 2553.74   61.39
  -3  -1   5 2520.85   56.39
   2   1  -5  649.14   24.30
   2   1  -5  627.44   19.00
  -2  -1   5  577.94   25.80
  -2  -1   5  662.13   23.20
   1   1  -5  235.58    8.30
   1   1  -5  240.98   14.20
  -1  -1   5  198.78   16.20
  -1  -1   5  241.38   14.10
   0   1  -5 1572.74   36.90
   0   1  -5 1578.14   40.90
   0  -1   5 1475.75   39.90
  -1   1  -5  536.75   22.90
  -1   1  -5  497.95   20.90
   1  -1   5  487.45   25.00
  -2   1  -5   81.89   12.80
  -2   1  -5   80.19   13.70
   2  -1   5   87.29    6.20
   2  -1   5   91.79   16.60
  -3   1  -5 1685.23   50.09
  -3   1  -5 1713.63   52.09
   3  -1   5 1733.53   52.39
  -4   1  -5  899.21   36.10
  -4   1  -5  888.61   38.70
  -5   1  -5   10.40   10.70
  -5   1  -5   15.80   11.60
  -6   1  -5  629.24   38.00
  -6   1  -5  618.74   34.30
  -7   1  -5  473.05   35.90
  -7   1  -5  533.25   35.10
  -8   1  -5    4.20   16.40
  -8   1  -5   22.80   15.70
  -9   1  -5   99.39   21.90
  -9   1  -5   85.89   23.60
  -9   1  -5   91.49   22.60
 -10   1  -5  187.18   31.10
 -10   1  -5  192.28   34.80
 -10   1  -5  230.48   34.90
 -11   0   5  121.69   25.50
 -11   0   5  112.39   23.90
 -10   0   5    7.90   14.90
 -10   0   5   -4.40   10.70
 -10   0   5   14.20   14.10
  -9   0   5  156.18   24.50
  -9   0   5  204.58   24.40
  -9   0   5  174.68   27.40
   8   0  -5  253.47   20.40
  -8   0   5  248.28   24.90
  -8   0   5  221.98   22.70
  -8   0   5  242.08   25.60
  -8   0   5  275.27   28.30
   7   0  -5   25.80   10.00
  -7   0   5   22.90   12.10
  -7   0   5   18.50    6.50
  -7   0   5   11.10   10.20
  -7   0   5   -2.00    9.10
   6   0  -5  294.77   19.20
  -6   0   5  328.77   16.10
  -6   0   5  332.17   25.00
  -6   0   5  299.67   21.00
  -6   0   5  325.07   20.70
   5   0  -5  898.61   31.10
  -5   0   5  942.71   30.30
  -5   0   5  887.71   36.60
  -5   0   5  891.21   32.30
   4   0  -5   50.29    9.70
  -4   0   5   63.79    9.20
  -4   0   5   53.09   11.80
  -4   0   5   65.29   11.50
   3   0  -5 2065.39   51.39
  -3   0   5 2047.50   49.10
  -3   0   5 1953.00   53.49
  -3   0   5 2030.60   42.90
   2   0  -5 3183.28   72.99
   2   0  -5 3252.07   68.79
  -2   0   5 3177.88   67.79
  -2   0   5 3114.69   73.89
   1   0  -5  372.56   11.60
   1   0  -5  354.56   17.60
  -1   0   5  376.46   15.00
  -1   0   5  375.86   11.30
   0   0  -5   64.59    9.80
   0   0  -5   48.60   10.00
   0   0   5   74.89   10.40
   0   0   5   49.60   11.30
  -1   0  -5 2010.40   52.69
  -1   0  -5 2075.59   50.79
   1   0   5 1894.71   43.60
   1   0   5 1968.00   53.59
  -2   0  -5 2199.38   58.99
  -2   0  -5 2295.87   59.49
   2   0   5 2286.77   45.60
   2   0   5 2177.88   59.49
  -3   0  -5    2.90    9.40
  -3   0  -5   -3.10    9.70
   3   0   5  -15.40    7.90
  -4   0  -5 1226.28   46.90
  -4   0  -5 1267.37   43.80
  -5   0  -5  587.24   32.00
  -5   0  -5  644.34   36.60
  -6   0  -5   70.49   16.50
  -6   0  -5   46.70   15.80
  -7   0  -5   68.49   16.80
  -7   0  -5   94.29   20.80
  -7   0  -5   71.49   18.70
  -8   0  -5  368.16   33.30
  -8   0  -5  427.26   39.50
  -8   0  -5  288.47   30.50
  -9   0  -5   94.69   24.20
  -9   0  -5  107.99   23.10
  -9   0  -5  105.99   26.20
 -10   0  -5   33.00   22.00
 -10   0  -5  -16.70   18.00
 -10   0  -5    4.60   17.20
 -11   1   5  255.67   31.90
 -11   1   5  234.78   29.30
 -11   1   5  233.88   32.80
 -10   1   5  216.68   27.70
 -10   1   5  222.38   30.60
 -10   1   5  207.88   26.70
   9  -1  -5   -0.50   10.00
  -9   1   5   21.60   13.40
  -9   1   5   13.20   14.00
  -9   1   5    4.60   11.20
   8  -1  -5   90.89   15.30
  -8   1   5   93.39   14.00
  -8   1   5   97.99   16.40
  -8   1   5   92.69   15.90
  -8   1   5  128.89   22.20
   7  -1  -5  989.90   37.50
  -7   1   5 1009.80   43.10
  -7   1   5  976.90   33.00
  -7   1   5 1042.50   39.10
  -7   1   5  964.30   38.50
   6  -1  -5  375.66   21.60
  -6   1   5  336.97   20.80
  -6   1   5  371.66   24.80
  -6   1   5  370.56   21.80
   5  -1  -5  324.77   19.80
  -5   1   5  320.97   17.80
  -5   1   5  306.07   21.20
  -5   1   5  322.87   18.30
   4  -1  -5 2039.30   56.09
  -4   1   5 2255.47   52.69
  -4   1   5 2196.28   58.59
  -4   1   5 2269.67   51.69
   3  -1  -5  461.55   20.60
  -3   1   5  471.95   16.70
  -3   1   5  418.86   21.40
  -3   1   5  466.35   15.20
   2  -1  -5  619.94   16.90
   2  -1  -5  626.64   17.00
   2  -1  -5  640.74   22.50
   2  -1  -5  607.64   24.40
  -2   1   5  624.14   24.00
  -2   1   5  627.84   17.20
  -2   1   5  610.84   17.10
   1  -1  -5 1748.63   47.80
   1  -1  -5 1791.72   38.70
   1  -1  -5 1833.62   41.80
   1  -1  -5 1833.12   46.30
  -1   1   5 1832.12   39.00
  -1   1   5 1814.22   48.40
   0  -1  -5 1338.17   36.20
   0  -1  -5 1351.36   39.10
   0   1   5 1278.97   39.40
   0   1   5 1356.36   34.50
  -1  -1  -5   12.70    8.90
  -1  -1  -5   10.60    8.50
   1   1   5    3.30    5.20
   1   1   5    6.20    8.50
  -2  -1  -5  760.32   32.00
  -2  -1  -5  819.32   32.40
   2   1   5  844.92   33.20
   2   1   5  803.72   21.50
  -3  -1  -5 2147.49   45.90
  -3  -1  -5 2138.19   60.99
  -3  -1  -5 2177.18   64.89
   3   1   5 2190.88   46.30
  -4  -1  -5  296.27   10.50
  -4  -1  -5  304.37   24.50
  -4  -1  -5  276.97   24.70
   4   1   5  284.87   10.80
  -5  -1  -5   89.59   16.90
  -5  -1  -5  126.69   22.30
  -5  -1  -5  112.09   19.50
  -6  -1  -5  598.64   39.70
  -6  -1  -5  630.14   36.10
  -6  -1  -5  652.43   36.60
  -7  -1  -5  174.98   26.00
  -7  -1  -5  187.78   31.10
  -7  -1  -5  124.09   22.10
  -8  -1  -5    9.10   16.90
  -8  -1  -5    4.60   14.10
  -8  -1  -5   -2.40   13.80
  -9  -1  -5  199.08   31.50
  -9  -1  -5  266.47   36.40
  -9  -1  -5  224.88   31.60
 -12   2   5  101.29   23.50
 -12   2   5   97.39   22.70
 -11   2   5   43.20   14.60
 -11   2   5   10.90   14.30
 -11   2   5   23.10   16.40
 -11   2   5   12.10   14.60
  10  -2  -5  126.09   22.20
 -10   2   5  136.89   22.60
 -10   2   5  157.98   27.30
 -10   2   5  148.79   24.30
   9  -2  -5  548.95   32.50
  -9   2   5  527.25   32.60
  -9   2   5  568.94   29.00
  -9   2   5  546.25   34.50
  -9   2   5  467.05   34.40
   8  -2  -5  921.21   39.20
  -8   2   5  904.11   39.70
  -8   2   5  840.02   42.00
  -8   2   5  887.21   34.40
  -8   2   5  854.31   37.90
   7  -2  -5   64.69   13.10
  -7   2   5   77.89   14.20
  -7   2   5   62.59   13.80
  -7   2   5   59.09   11.80
   6  -2  -5 1066.39   38.90
  -6   2   5 1148.49   41.00
  -6   2   5 1134.29   38.40
  -6   2   5 1095.99   36.40
   5  -2  -5  686.63   29.40
  -5   2   5  691.43   25.10
  -5   2   5  704.23   29.00
   4  -2  -5  588.44   26.20
  -4   2   5  553.24   23.60
  -4   2   5  600.74   19.90
   3  -2  -5 1254.97   38.70
  -3   2   5 1324.37   29.60
  -3   2   5 1279.77   36.80
   2  -2  -5 1059.29   28.80
   2  -2  -5 1034.50   33.50
   2  -2  -5  990.50   31.10
  -2   2   5  988.60   31.20
  -2   2   5 1079.99   33.50
   1  -2  -5    1.50    2.60
   1  -2  -5   -1.50    6.60
   1  -2  -5   -2.60    6.90
   1  -2  -5   14.80    7.70
   1  -2  -5   -1.40    3.00
  -1   2   5    0.70    7.30
  -1   2   5   -0.90    6.80
   0  -2  -5 1063.09   35.30
   0  -2  -5 1095.59   34.00
   0   2   5 1055.09   33.70
   0   2   5 1085.49   31.30
  -1  -2  -5  887.11   27.40
  -1  -2  -5  909.91   33.50
  -1  -2  -5  869.41   32.00
   1   2   5  893.41   26.50
   1   2   5  868.91   32.40
  -2  -2  -5  293.27   18.00
  -2  -2  -5  298.97   21.70
  -2  -2  -5  269.87   22.10
   2   2   5  265.67   14.10
   2   2   5  324.27   22.00
  -3  -2  -5   24.80   12.70
  -3  -2  -5   44.10   11.70
  -3  -2  -5   33.90    9.90
   3   2   5   39.60    7.30
  -4  -2  -5  348.67   25.00
  -4  -2  -5  351.86   28.30
  -4  -2  -5  319.97   25.00
   4   2   5  345.87   15.80
  -5  -2  -5  595.04   39.60
  -5  -2  -5  627.24   34.70
  -5  -2  -5  651.53   34.40
  -6  -2  -5   49.20   19.10
  -6  -2  -5   43.70   15.20
  -6  -2  -5   37.30   15.00
  -7  -2  -5  320.37   32.20
  -7  -2  -5  321.97   29.90
  -7  -2  -5  363.86   35.80
  -8  -2  -5  263.87   37.30
  -8  -2  -5  188.68   33.10
  -8  -2  -5  239.28   30.30
  -9  -2  -5  -29.40   18.60
  -9  -2  -5   -2.50   15.70
 -12   3   5   -0.40   13.50
 -12   3   5   16.10   14.90
  11  -3  -5  210.08   25.30
 -11   3   5  151.98   27.80
 -11   3   5  213.88   26.60
 -11   3   5  193.88   28.10
 -11   3   5  192.48   25.00
  10  -3  -5  100.49   19.20
 -10   3   5   87.09   18.40
 -10   3   5   97.89   19.90
 -10   3   5   85.99   19.50
 -10   3   5  114.49   20.20
 -10   3   5  133.99   19.80
   9  -3  -5   34.30   14.40
  -9   3   5   24.50   10.90
  -9   3   5   23.00   12.60
  -9   3   5   19.50   12.40
  -9   3   5   27.90   12.30
  -9   3   5   65.99   16.00
   8  -3  -5 1065.09   43.70
  -8   3   5 1043.70   40.90
  -8   3   5 1014.30   43.60
  -8   3   5 1096.49   44.70
  -8   3   5 1042.80   44.10
  -8   3   5  998.80   39.60
   7  -3  -5  420.56   26.80
  -7   3   5  404.96   26.80
  -7   3   5  420.66   23.30
  -7   3   5  418.06   26.50
  -7   3   5  337.47   23.40
   6  -3  -5   37.30   11.50
  -6   3   5   36.50    9.90
  -6   3   5   26.00   10.90
  -6   3   5   28.30    8.50
   5  -3  -5 1043.50   38.40
  -5   3   5 1052.49   38.60
  -5   3   5 1045.00   30.80
  -5   3   5 1012.60   34.40
  -4   3   5 1613.44   48.40
  -4   3   5 1588.64   43.20
  -4   3   5 1588.94   37.50
   3  -3  -5  774.82   30.90
  -3   3   5  800.12   26.80
  -3   3   5  810.82   30.80
  -3   3   5  817.82   18.80
  -3   3   5  832.12   18.40
   2  -3  -5  445.36   20.60
   2  -3  -5  446.56   22.10
   2  -3  -5  465.75   22.40
  -2   3   5  443.46   20.20
  -2   3   5  444.56   21.30
   1  -3  -5  624.74   26.40
   1  -3  -5  595.34   25.10
   1  -3  -5  569.74   24.60
   1  -3  -5  592.34   15.50
  -1   3   5  602.24   23.10
  -1   3   5  600.94   24.60
   0  -3  -5   60.39    8.80
   0  -3  -5   51.49   11.20
   0  -3  -5   40.90    9.80
   0  -3  -5   57.29   11.60
   0   3   5   48.60    9.60
   0   3   5   54.99    9.40
  -1  -3  -5   87.59   13.90
  -1  -3  -5   52.49    8.60
  -1  -3  -5   97.09   14.00
  -1  -3  -5   74.89   13.80
   1   3   5   73.79   11.70
   1   3   5   84.59   11.90
  -2  -3  -5 1215.18   41.40
  -2  -3  -5 1242.78   46.00
  -2  -3  -5 1185.68   37.80
   2   3   5 1202.18   35.70
  -3  -3  -5  653.33   30.10
  -3  -3  -5  634.94   34.50
  -3  -3  -5  653.13   31.20
   3   3   5  654.63   24.40
  -4  -3  -5    1.10   10.00
  -4  -3  -5   13.60   14.60
  -4  -3  -5   14.00   11.00
   4   3   5   10.50    7.70
  -5  -3  -5  806.22   38.90
  -5  -3  -5  835.82   47.00
  -5  -3  -5  839.72   40.80
  -6  -3  -5  214.28   25.40
  -6  -3  -5  199.68   26.80
  -6  -3  -5  211.88   32.50
  -7  -3  -5  -13.60   13.20
  -7  -3  -5    9.20   14.10
  -7  -3  -5  -13.90   16.80
  -8  -3  -5  154.48   30.80
  -8  -3  -5  137.69   25.80
  -9  -3  -5  165.58   31.30
  -9  -3  -5  153.18   28.90
 -12   4   5  155.78   27.50
 -12   4   5  135.39   23.20
 -12   4   5  176.38   29.00
  11  -4  -5  -12.70   12.80
 -11   4   5   24.60   13.70
 -11   4   5   -1.10   14.40
 -11   4   5   35.60   12.30
 -11   4   5   23.90   13.20
 -11   4   5   -1.80   11.80
  10  -4  -5  310.77   29.50
 -10   4   5  316.27   29.10
 -10   4   5  317.57   25.90
 -10   4   5  352.46   28.20
 -10   4   5  267.07   30.00
 -10   4   5  312.37   26.50
   9  -4  -5  311.67   29.30
  -9   4   5  290.47   25.10
  -9   4   5  314.87   25.40
  -9   4   5  286.77   27.30
  -9   4   5  307.37   23.70
  -9   4   5  298.87   25.20
   8  -4  -5   36.80   14.50
  -8   4   5   42.00   11.90
  -8   4   5   39.70   13.30
  -8   4   5   53.69   12.20
   7  -4  -5  310.37   24.90
  -7   4   5  257.97   18.60
  -7   4   5  279.37   20.80
  -7   4   5  337.67   24.60
   6  -4  -5  727.43   33.80
  -6   4   5  647.14   25.50
  -6   4   5  645.94   27.90
  -6   4   5  679.13   32.10
   5  -4  -5  144.09   16.60
  -5   4   5  145.59   13.20
  -5   4   5  103.39   17.40
   4  -4  -5  390.16   22.70
  -4   4   5  424.06   23.60
  -4   4   5  374.16   17.50
   3  -4  -5 1678.53   49.00
   3  -4  -5 1755.22   50.89
  -3   4   5 1777.82   44.40
  -3   4   5 1794.72   36.30
  -3   4   5 1789.02   51.79
   2  -4  -5  519.25   24.60
   2  -4  -5  533.95   24.60
  -2   4   5  452.25   24.50
  -2   4   5  519.95   19.60
   1  -4  -5    4.20    7.80
   1  -4  -5   17.60    8.60
   1  -4  -5   -3.10    8.50
   1  -4  -5    3.50    4.70
  -1   4   5    8.10    6.30
  -1   4   5    1.60    8.20
   0  -4  -5  541.45   20.30
   0  -4  -5  551.74   28.90
   0  -4  -5  577.24   26.10
   0  -4  -5  550.44   23.70
   0   4   5  504.85   24.00
   0   4   5  498.35   23.00
  -1  -4  -5 1047.10   37.80
  -1  -4  -5 1024.20   33.00
  -1  -4  -5  984.10   40.40
  -1  -4  -5 1029.40   33.00
   1   4   5 1103.09   35.10
  -2  -4  -5    2.50    8.20
  -2  -4  -5    1.00    7.70
  -2  -4  -5   -0.40    9.60
  -2  -4  -5  -11.00   11.10
   2   4   5   11.90    8.20
  -3  -4  -5  420.76   21.90
  -3  -4  -5  398.56   25.80
  -3  -4  -5  381.26   26.00
  -3  -4  -5  478.15   33.50
   3   4   5  477.65   23.60
  -4  -4  -5  711.63   35.00
  -4  -4  -5  719.93   43.40
  -4  -4  -5  767.62   37.50
   4   4   5  717.73   30.30
  -5  -4  -5   83.59   21.50
  -5  -4  -5   65.39   16.90
  -5  -4  -5   76.59   16.00
  -6  -4  -5   94.39   18.10
  -6  -4  -5  151.28   28.40
  -6  -4  -5  100.09   20.70
  -7  -4  -5  293.37   33.20
  -7  -4  -5  271.17   43.30
  -7  -4  -5  274.77   38.80
  -8  -4  -5   34.20   19.90
  -8  -4  -5   83.29   22.20
 -12   5   5  160.98   26.30
 -12   5   5  134.49   35.30
 -12   5   5  113.89   25.40
  11  -5  -5  136.39   23.80
 -11   5   5  161.88   26.80
 -11   5   5  134.69   23.70
 -11   5   5  161.78   22.60
 -11   5   5  161.88   22.70
 -11   5   5  163.28   25.00
  10  -5  -5   33.60   16.30
 -10   5   5    1.90   10.30
 -10   5   5   10.00   11.60
 -10   5   5   13.10   13.80
 -10   5   5    4.00   10.80
 -10   5   5    4.20   11.20
   9  -5  -5  119.19   20.60
  -9   5   5  189.98   20.40
  -9   5   5  193.18   22.70
  -9   5   5  188.28   21.30
  -9   5   5  154.68   21.30
   8  -5  -5  467.25   32.30
  -8   5   5  430.36   29.50
  -8   5   5  513.75   27.60
  -8   5   5  453.85   26.20
   7  -5  -5   80.39   16.00
  -7   5   5   80.29   16.00
  -7   5   5  111.09   15.30
   6  -5  -5  123.69   20.10
  -6   5   5  150.58   19.50
  -6   5   5  139.39   13.60
   5  -5  -5 1300.87   45.70
  -5   5   5 1221.08   44.30
  -5   5   5 1295.27   35.60
   4  -5  -5  909.01   37.20
  -4   5   5 1032.80   38.10
  -4   5   5  980.80   28.40
   3  -5  -5   -2.80    7.80
   3  -5  -5   12.90    9.50
  -3   5   5    2.30    3.70
  -3   5   5   -2.00    5.00
  -3   5   5    4.10   10.00
   2  -5  -5  920.81   36.30
   2  -5  -5  888.41   24.40
   2  -5  -5  910.31   33.50
  -2   5   5  870.91   34.70
  -2   5   5  896.01   26.10
   1  -5  -5  610.34   27.60
   1  -5  -5  592.14   29.80
   1  -5  -5  579.24   25.90
   1  -5  -5  587.94   20.80
  -1   5   5  609.14   28.10
   0  -5  -5   33.50   10.70
   0  -5  -5   49.30   13.90
   0  -5  -5   39.40    8.30
   0  -5  -5   57.09   10.00
   0   5   5   37.30   11.00
  -1  -5  -5  282.97   22.00
  -1  -5  -5  299.67   18.00
  -1  -5  -5  302.57   27.10
  -1  -5  -5  283.77   19.30
   1   5   5  296.17   21.40
  -2  -5  -5  662.63   39.00
  -2  -5  -5  693.43   32.70
  -2  -5  -5  662.93   30.80
  -2  -5  -5  695.93   26.20
   2   5   5  702.73   30.10
  -3  -5  -5   75.09   12.10
  -3  -5  -5   57.99   13.90
  -3  -5  -5   68.39   14.30
  -3  -5  -5   34.00   17.30
   3   5   5   33.40   12.10
  -4  -5  -5   84.09   16.50
  -4  -5  -5  109.89   22.60
  -4  -5  -5  133.69   21.40
   4   5   5   95.59   15.50
  -5  -5  -5  288.97   35.30
  -5  -5  -5  291.57   26.90
  -5  -5  -5  247.78   28.00
  -6  -5  -5   85.09   24.90
  -6  -5  -5   81.59   17.60
  -6  -5  -5  116.09   22.10
  -7  -5  -5  -20.60   18.40
  -7  -5  -5    7.30   15.70
  12  -6  -5    9.60   16.30
 -12   6   5   -3.40   14.60
 -12   6   5   12.80   12.00
  11  -6  -5  114.79   24.50
 -11   6   5  157.78   25.00
 -11   6   5  197.38   24.50
 -11   6   5  160.48   24.30
 -11   6   5  131.19   25.30
  10  -6  -5  392.66   34.40
 -10   6   5  431.46   31.70
 -10   6   5  411.96   34.80
 -10   6   5  430.56   29.20
 -10   6   5  402.16   30.70
   9  -6  -5  194.08   24.90
  -9   6   5  203.28   23.70
  -9   6   5  199.28   20.60
   8  -6  -5   41.50   16.10
  -8   6   5   29.00   10.20
  -8   6   5    8.20   11.70
   7  -6  -5  231.28   24.10
  -7   6   5  277.87   25.00
  -7   6   5  255.87   17.70
   6  -6  -5  271.47   24.80
  -6   6   5  210.08   22.80
  -6   6   5  246.08   15.20
   5  -6  -5   38.60   13.30
  -5   6   5   24.20    6.50
  -5   6   5   47.00   14.20
   4  -6  -5  461.35   26.50
  -4   6   5  461.55   28.20
  -4   6   5  495.65   15.40
   3  -6  -5  623.94   32.30
   3  -6  -5  625.74   30.00
   3  -6  -5  651.13   21.00
   3  -6  -5  626.44   18.20
  -3   6   5  631.04   31.20
  -3   6   5  617.14   17.60
   2  -6  -5   73.89   11.40
   2  -6  -5   64.59   14.90
   2  -6  -5   60.39   12.00
  -2   6   5   49.00   12.20
   1  -6  -5  278.47   17.30
   1  -6  -5  272.87   19.40
   1  -6  -5  282.57   26.30
  -1   6   5  276.57   22.30
   0  -6  -5  700.83   37.80
   0  -6  -5  689.43   31.90
   0  -6  -5  707.23   27.80
   0  -6  -5  635.24   27.30
   0   6   5  729.53   32.70
  -1  -6  -5  243.18   21.40
  -1  -6  -5  182.48   26.50
  -1  -6  -5  208.78   18.70
  -1  -6  -5  233.18   17.10
   1   6   5  237.08   21.50
  -2  -6  -5   96.69   16.40
  -2  -6  -5  172.28   25.10
  -2  -6  -5  113.49   18.90
  -2  -6  -5  129.69   13.70
   2   6   5  104.29   16.60
  -3  -6  -5  373.76   28.50
  -3  -6  -5  415.46   29.10
  -3  -6  -5  432.76   38.00
   3   6   5  400.26   26.60
  -4  -6  -5  126.89   24.20
  -4  -6  -5  185.98   25.80
  -4  -6  -5  161.58   23.10
   4   6   5  124.59   20.80
  -5  -6  -5    9.90   15.90
  -5  -6  -5   33.00   15.80
  -5  -6  -5   28.30   12.70
  -6  -6  -5  215.38   35.40
  -6  -6  -5  144.79   25.30
  -7  -6  -5  133.99   31.40
  -7  -6  -5  265.47   36.30
  12  -7  -5   91.29   22.90
 -12   7   5  100.39   24.50
 -12   7   5   98.49   20.20
  11  -7  -5   43.60   20.80
 -11   7   5   85.59   18.30
 -11   7   5   75.39   20.50
 -11   7   5  107.59   23.70
  10  -7  -5    7.50   15.10
 -10   7   5   16.70   13.60
 -10   7   5    2.20   13.30
   9  -7  -5  384.26   33.90
  -9   7   5  341.87   29.70
   8  -7  -5  332.27   30.90
  -8   7   5  288.67   27.60
   7  -7  -5   -0.90   11.60
  -7   7   5    4.00   12.00
   6  -7  -5  521.15   33.10
  -6   7   5  450.35   31.10
   5  -7  -5  524.75   32.00
  -5   7   5  512.25   31.80
   4  -7  -5   41.00   13.00
   4  -7  -5   53.99   14.60
  -4   7   5   38.50   14.20
   3  -7  -5   81.09   14.20
   3  -7  -5   77.09   12.20
   3  -7  -5   59.49   15.40
  -3   7   5   58.19   13.70
   2  -7  -5  568.64   34.60
   2  -7  -5  543.95   27.90
   2  -7  -5  541.45   24.20
  -2   7   5  479.15   30.40
   1  -7  -5  182.78   17.10
   1  -7  -5  143.39   17.10
   1  -7  -5  185.78   26.10
  -1   7   5  160.88   21.20
   0  -7  -5  186.88   17.00
   0  -7  -5  113.59   17.20
   0  -7  -5  182.08   27.00
   0   7   5  178.38   21.60
  -1  -7  -5  674.93   26.90
  -1  -7  -5  670.03   32.40
  -1  -7  -5  625.94   41.50
  -1  -7  -5  689.83   34.00
   1   7   5  689.93   35.20
  -2  -7  -5  223.68   23.10
  -2  -7  -5  268.87   32.70
  -2  -7  -5  251.97   24.10
   2   7   5  213.98   23.80
  -3  -7  -5   -8.80   12.10
  -3  -7  -5   -6.80   15.00
  -3  -7  -5  -14.60   10.30
   3   7   5    3.00   12.30
  -4  -7  -5   60.49   22.50
  -4  -7  -5   92.89   16.70
  -4  -7  -5   90.49   19.10
  -5  -7  -5  111.09   26.30
  -5  -7  -5  105.89   22.90
  -6  -7  -5  -14.20   17.60
  -6  -7  -5    9.60   15.80
  11  -8  -5  100.09   24.10
 -11   8   5   90.69   21.30
 -11   8   5   58.99   19.10
  10  -8  -5  176.78   27.10
 -10   8   5  155.08   26.30
 -10   8   5  125.99   22.70
   9  -8  -5    0.60   14.60
  -9   8   5  -17.50   13.10
   8  -8  -5  154.18   24.90
  -8   8   5  162.18   25.10
   7  -8  -5  223.18   27.50
  -7   8   5  206.48   25.60
   6  -8  -5   47.90   15.60
  -6   8   5   32.40   15.20
   5  -8  -5  113.89   19.40
  -5   8   5   99.79   18.70
   4  -8  -5  234.88   23.40
   4  -8  -5  167.58   25.90
  -4   8   5  238.78   25.80
   3  -8  -5  244.38   22.10
   3  -8  -5  267.27   29.10
  -3   8   5  240.48   26.20
   2  -8  -5   30.70   11.80
   2  -8  -5   48.90   11.90
   2  -8  -5   44.40   17.10
  -2   8   5   75.39   16.50
   1  -8  -5  608.84   40.20
   1  -8  -5  588.64   29.40
   1  -8  -5  633.84   29.20
  -1   8   5  611.04   35.70
   0  -8  -5  378.26   35.90
   0  -8  -5  383.16   25.60
   0  -8  -5  392.26   22.90
   0   8   5  360.26   29.50
  -1  -8  -5   19.60   16.90
  -1  -8  -5   22.00   12.50
   1   8   5  -13.70   12.20
  -2  -8  -5  223.08   25.30
  -2  -8  -5  239.48   25.30
  -2  -8  -5  238.68   34.30
   2   8   5  268.97   28.60
  -3  -8  -5  177.98   23.60
  -3  -8  -5  183.38   26.20
  -3  -8  -5  204.78   33.50
   3   8   5  172.68   26.50
  -4  -8  -5   -5.40   13.60
  -4  -8  -5   -6.70   17.90
  -5  -8  -5   78.29   20.70
  -5  -8  -5   87.89   27.30
  11  -9  -5   33.20   19.60
 -11   9   5   31.10   15.80
 -11   9   5   10.00   16.20
  10  -9  -5   51.49   21.40
 -10   9   5   63.69   18.70
 -10   9   5   35.10   16.60
   9  -9  -5  109.89   24.30
  -9   9   5  133.79   22.30
   8  -9  -5   31.70   16.80
  -8   9   5    1.20   13.40
   7  -9  -5   47.10   16.90
  -7   9   5   66.89   18.00
   6  -9  -5  310.47   28.80
  -6   9   5  294.27   29.80
   5  -9  -5  184.78   24.00
  -5   9   5  169.18   25.20
   4  -9  -5  -17.70   14.60
   4  -9  -5   -3.40   11.90
  -4   9   5   15.00   14.40
   3  -9  -5  436.16   36.20
   3  -9  -5  414.26   27.90
  -3   9   5  460.65   33.60
   2  -9  -5  190.28   30.10
   2  -9  -5  182.68   20.60
  -2   9   5  172.38   26.00
   1  -9  -5   24.90   11.20
   1  -9  -5   -0.30   16.20
  -1   9   5   11.60   13.50
   0  -9  -5  144.29   27.80
   0   9   5  164.78   26.50
  -1  -9  -5  237.08   36.20
   1   9   5  241.38   30.00
  -2  -9  -5   57.49   23.60
   2   9   5   57.59   19.30
  -3  -9  -5   49.70   23.50
   3   9   5   41.60   18.40
  -4  -9  -5  131.99   31.10
  10 -10  -5   70.89   23.20
 -10  10   5   63.09   19.00
 -10  10   5   41.50   18.80
   9 -10  -5    4.30   16.30
  -9  10   5   -6.10   13.80
   8 -10  -5   54.49   19.20
  -8  10   5   93.89   21.80
   7 -10  -5   78.49   21.10
  -7  10   5  117.39   23.10
   6 -10  -5   20.30   15.40
  -6  10   5   13.70   14.90
   5 -10  -5  131.29   21.20
  -5  10   5  149.29   24.50
   4 -10  -5  225.78   32.60
   4 -10  -5  197.28   23.50
  -4  10   5  194.68   26.20
   3 -10  -5   10.20   11.40
   3 -10  -5   17.00   17.70
  -3  10   5   -9.50   12.60
   2 -10  -5   -0.80   10.80
   2 -10  -5    0.60   17.20
  -2  10   5    7.30   14.80
   1 -10  -5  136.49   27.00
  -1  10   5  185.98   28.30
   0 -10  -5   78.99   21.80
   0  10   5   48.50   18.70
  -1 -10  -5   10.30   20.70
   1  10   5   -9.10   14.80
  -2 -10  -5   94.69   26.60
   2  10   5   94.79   22.00
  -3 -10  -5   24.90   24.20
   3  10   5   24.40   20.20
   9 -11  -5   87.99   24.40
  -9  11   5   48.80   21.00
   8 -11  -5   -6.20   15.60
  -8  11   5  -23.00   13.80
   7 -11  -5  128.39   24.30
  -7  11   5  136.59   24.70
   6 -11  -5  120.39   22.70
  -6  11   5  102.69   23.00
   5 -11  -5   16.10   14.20
  -5  11   5   13.80   16.30
   4 -11  -5   44.00   15.40
   4 -11  -5   58.39   22.20
  -4  11   5   33.70   17.70
   3 -11  -5   51.09   21.10
  -3  11   5   57.99   20.30
   2 -11  -5   35.40   21.20
  -2  11   5   30.60   17.60
   1 -11  -5  -15.20   18.40
  -1  11   5  -19.30   16.30
   0 -11  -5   72.59   25.80
   0  11   5   56.29   21.80
  -1 -11  -5   55.79   21.10
   1  11   5   51.89   21.70
   8 -12  -5   91.59   24.30
  -8  12   5   85.99   23.10
   7 -12  -5   23.60   18.50
  -7  12   5   -4.20   16.90
   6 -12  -5    5.80   16.60
  -6  12   5    8.20   18.70
   5 -12  -5   77.79   20.30
  -5  12   5   46.80   19.60
   4 -12  -5   30.60   21.30
  -4  12   5   68.29   22.50
   3 -12  -5   10.60   18.80
  -3  12   5    5.00   17.40
   2 -12  -5  121.29   27.60
  -2  12   5  107.89   26.00
   1 -12  -5   73.19   27.10
  -1  12   5   59.09   23.50
   1  12  -6   98.69   24.00
  -1 -12   6  108.59   26.60
  -1 -12   6   64.79   24.60
   0  12  -6   -5.00   16.80
   0 -12   6   23.10   20.60
  -1  12  -6   67.09   22.60
   1 -12   6   59.89   25.10
  -2  12  -6  150.68   27.10
   2 -12   6   74.29   24.90
  -3  12  -6   31.10   18.20
   3 -12   6   70.29   24.60
  -4  12  -6   46.30   19.30
  -4  12  -6   43.20   19.50
   4 -12   6   34.00   22.00
  -5  12  -6   82.79   21.60
  -5  12  -6  108.29   21.30
   5 -12   6  101.59   27.50
  -6  12  -6  106.09   22.80
   3  11  -6   59.89   20.80
  -3 -11   6   62.69   24.00
  -3 -11   6   92.69   22.50
   2  11  -6   26.60   18.80
  -2 -11   6    4.60   18.50
  -2 -11   6    8.40   17.40
   1  11  -6   34.00   20.00
  -1 -11   6   32.50   21.50
  -1 -11   6   34.50   20.00
   0  11  -6  131.89   25.10
   0 -11   6  169.48   30.10
  -1  11  -6  118.29   24.40
   1 -11   6   69.69   24.20
  -2  11  -6   17.80   16.10
   2 -11   6    0.40   17.30
  -3  11  -6  142.09   25.20
  -3  11  -6  146.39   23.60
   3 -11   6  171.68   30.20
  -4  11  -6  101.29   22.30
  -4  11  -6   45.70   15.70
   4 -11   6   90.79   24.40
  -5  11  -6   10.00   15.20
  -5  11  -6    6.40   13.30
   5 -11   6   -2.20   18.20
  -6  11  -6   69.09   20.60
  -7  11  -6  128.39   24.70
  -8  11  -6   46.80   20.30
   4  10  -6   27.70   19.40
  -4 -10   6   30.00   22.00
  -4 -10   6    1.30   17.40
   3  10  -6   37.00   18.40
  -3 -10   6   16.40   16.80
  -3 -10   6    6.00   19.30
   2  10  -6  126.99   24.30
  -2 -10   6  134.09   24.80
  -2 -10   6  133.49   27.00
   1  10  -6   36.00   17.40
  -1 -10   6   96.39   21.30
  -1 -10   6   33.40   20.80
   0  10  -6  -24.00   14.20
   0 -10   6   10.30   17.40
  -1  10  -6  116.29   22.40
   1 -10   6  153.18   27.30
  -2  10  -6  179.68   27.40
  -2  10  -6  176.78   21.70
   2 -10   6  146.39   26.50
  -3  10  -6   14.20   14.30
  -3  10  -6    1.80   11.70
   3 -10   6    6.00   15.80
  -4  10  -6   24.90   16.30
  -4  10  -6   77.29   17.40
   4 -10   6   71.49   22.60
  -5  10  -6  171.78   25.00
  -5  10  -6  108.39   20.80
   5 -10   6  102.19   22.90
  -6  10  -6    3.50   14.10
  -7  10  -6   28.10   17.00
  -8  10  -6  156.98   26.80
   5   9  -6   32.70   19.00
  -5  -9   6   18.90   16.80
  -5  -9   6   20.80   20.20
  -5  -9   6   47.20   29.00
   4   9  -6  153.88   26.60
  -4  -9   6  100.09   24.50
  -4  -9   6  140.89   24.70
  -4  -9   6  120.79   23.60
   3   9  -6   69.09   18.30
  -3  -9   6   48.70   21.90
  -3  -9   6   41.70   17.40
  -3  -9   6   86.59   19.70
   2   9  -6    9.40   16.10
  -2  -9   6    7.20   13.40
  -2  -9   6   -3.50   12.20
  -2  -9   6   -0.10   15.40
   1   9  -6  228.58   29.50
  -1  -9   6  229.48   29.20
  -1  -9   6  200.18   25.00
  -1  -9   6  244.18   31.70
   0   9  -6  207.18   25.50
   0  -9   6  237.18   31.40
   0  -9   6  185.98   23.60
  -1   9  -6   46.60   11.60
  -1   9  -6   34.60   15.50
   1  -9   6   18.50   14.30
   1  -9   6   15.40   17.30
  -2   9  -6   96.89   18.70
  -2   9  -6   58.79   13.90
   2  -9   6   47.50   17.70
  -3   9  -6  203.18   21.90
  -3   9  -6  197.68   25.20
   3  -9   6  172.18   26.90
  -4   9  -6   45.50   14.90
  -4   9  -6   70.49   16.80
   4  -9   6   47.40   19.10
  -5   9  -6   57.09   15.60
  -5   9  -6   56.29   17.10
   5  -9   6  132.49   24.80
  -6   9  -6  191.38   27.40
  -7   9  -6   96.19   21.20
  -8   9  -6  -22.30   14.10
  -9   9  -6  130.89   26.50
  -9   9  -6  147.19   29.10
  -6  -8   6  212.88   35.30
  -6  -8   6  258.67   35.90
   5   8  -6  272.57   32.50
  -5  -8   6  226.28   30.50
  -5  -8   6  253.37   32.70
  -5  -8   6  221.18   34.00
   4   8  -6   -9.50   14.60
  -4  -8   6   13.10   13.40
  -4  -8   6    1.90   13.40
  -4  -8   6   13.40   16.70
   3   8  -6  153.28   26.70
  -3  -8   6  136.29   25.40
  -3  -8   6  192.58   26.70
  -3  -8   6  148.29   24.30
   2   8  -6  300.37   30.30
  -2  -8   6  276.17   26.70
  -2  -8   6  314.07   28.40
  -2  -8   6  254.27   28.60
   1   8  -6    6.40   12.30
  -1  -8   6   17.60   11.80
  -1  -8   6   23.80   16.30
  -1  -8   6    0.70   11.10
   0   8  -6  117.79   15.10
   0   8  -6  147.99   23.90
   0  -8   6  138.49   23.90
   0  -8   6  146.29   21.70
  -1   8  -6  432.36   30.40
  -1   8  -6  460.75   24.40
   1  -8   6  443.66   30.70
   1  -8   6  443.96   35.50
  -2   8  -6  161.98   21.80
  -2   8  -6  100.19   17.00
   2  -8   6   82.19   16.70
   2  -8   6  117.79   22.80
  -3   8  -6   34.40   13.10
  -3   8  -6   39.30   12.50
   3  -8   6   30.30   15.60
   3  -8   6   40.70   12.90
  -4   8  -6  475.05   28.90
  -4   8  -6  364.36   28.30
   4  -8   6  454.75   29.00
   4  -8   6  480.05   37.60
  -5   8  -6  407.96   27.00
  -5   8  -6  395.06   31.10
   5  -8   6  386.36   27.60
  -6   8  -6   -2.00   12.00
   6  -8   6    7.10   12.70
  -7   8  -6  103.69   21.70
  -8   8  -6   93.69   22.40
  -9   8  -6   -0.20   17.20
  -9   8  -6    2.60   17.60
 -10   8  -6   70.79   22.40
 -10   8  -6   71.69   26.80
  -7  -7   6  149.29   27.10
  -7  -7   6  129.69   27.80
  -6  -7   6   19.80   16.60
  -6  -7   6    7.00   15.20
  -6  -7   6   -6.50   15.40
   5   7  -6  151.78   25.30
  -5  -7   6  112.29   22.50
  -5  -7   6  156.18   25.50
  -5  -7   6  113.09   20.20
   4   7  -6  345.17   31.90
  -4  -7   6  393.36   30.80
  -4  -7   6  355.36   31.40
  -4  -7   6  387.86   35.10
   3   7  -6   47.80   16.10
  -3  -7   6   18.10   15.10
  -3  -7   6   39.10   14.80
  -3  -7   6   65.99   15.80
   2   7  -6  110.79   19.10
  -2  -7   6  117.79   21.20
  -2  -7   6   62.39   17.80
  -2  -7   6   93.39   16.20
   1   7  -6  324.27   23.40
   1   7  -6  379.86   28.90
  -1  -7   6  382.16   27.30
  -1  -7   6  371.76   26.20
  -1  -7   6  392.96   31.60
   0   7  -6  154.58   14.80
   0   7  -6  177.78   22.40
   0  -7   6  171.18   21.40
   0  -7   6  132.99   21.20
  -1   7  -6    9.50   10.90
  -1   7  -6   -1.70    8.10
   1  -7   6    3.80   11.20
   1  -7   6  -26.50   11.60
  -2   7  -6  356.86   24.80
  -2   7  -6  315.77   22.00
   2  -7   6  300.67   26.50
   2  -7   6  343.77   29.20
  -3   7  -6  339.97   23.40
  -3   7  -6  320.87   24.10
   3  -7   6  287.37   25.60
   3  -7   6  344.77   30.70
  -4   7  -6    6.50   10.40
  -4   7  -6    4.40   11.10
   4  -7   6   26.90   15.70
   4  -7   6    2.10   11.00
  -5   7  -6  429.66   31.00
  -5   7  -6  535.45   26.00
   5  -7   6  468.75   30.30
  -6   7  -6  572.74   36.50
   6  -7   6  592.04   34.20
  -7   7  -6   45.20   15.70
  -8   7  -6   63.89   18.70
  -8   7  -6   48.60   21.60
  -9   7  -6  228.48   35.70
  -9   7  -6  223.28   32.10
 -10   7  -6   23.10   18.30
 -10   7  -6   52.39   23.00
  -8  -6   6  -18.20   15.60
  -8  -6   6    5.00   16.00
  -7  -6   6   23.90   17.20
  -7  -6   6   67.99   21.70
  -6  -6   6  263.47   31.10
  -6  -6   6  200.68   26.30
  -6  -6   6  294.37   32.70
   5   6  -6  192.18   27.40
  -5  -6   6  159.28   26.80
  -5  -6   6  179.28   26.00
  -5  -6   6  152.38   23.90
   4   6  -6  100.39   19.40
  -4  -6   6  119.49   21.20
  -4  -6   6   87.59   19.10
  -4  -6   6   83.69   18.10
   3   6  -6  469.35   32.20
  -3  -6   6  515.75   28.80
  -3  -6   6  495.65   31.60
  -3  -6   6  500.05   33.60
   2   6  -6  329.87   27.20
  -2  -6   6  355.86   24.00
  -2  -6   6  332.77   26.60
  -2  -6   6  288.47   25.90
   1   6  -6   32.80    7.20
   1   6  -6   38.30   12.50
  -1  -6   6   48.60   11.90
  -1  -6   6   39.80   11.80
  -1  -6   6   26.80   13.50
   0   6  -6  190.78   19.10
   0   6  -6  173.68   14.30
   0  -6   6  204.18   24.20
   0  -6   6  185.48   19.80
  -1   6  -6  854.31   31.20
  -1   6  -6  831.32   34.30
   1  -6   6  766.62   35.50
   1  -6   6  813.12   39.10
  -2   6  -6   18.10    9.50
  -2   6  -6   23.30   10.10
   2  -6   6   39.50   15.30
   2  -6   6   13.00   11.80
  -3   6  -6  344.97   21.60
  -3   6  -6  307.67   23.10
   3  -6   6  314.17   27.00
   3  -6   6  345.67   24.80
  -4   6  -6  990.70   41.20
  -4   6  -6  988.60   34.50
   4  -6   6 1065.09   42.20
  -5   6  -6  131.09   19.90
  -5   6  -6  135.89   14.90
   5  -6   6  141.59   21.90
  -6   6  -6  153.28   24.20
  -7   6  -6  383.26   33.00
  -7   6  -6  346.47   34.60
  -8   6  -6  163.18   29.00
  -8   6  -6  146.49   24.50
  -9   6  -6   28.20   19.30
  -9   6  -6  -14.80   13.80
 -10   6  -6   80.19   24.00
 -10   6  -6   75.09   23.80
  -9  -5   6   73.89   24.00
  -9  -5   6   52.29   21.70
  -8  -5   6  184.28   31.70
  -8  -5   6  175.78   30.30
  -7  -5   6  111.39   21.80
  -7  -5   6  132.29   23.90
  -7  -5   6   97.89   19.50
  -6  -5   6    9.60   13.40
  -6  -5   6   20.60   15.70
  -6  -5   6   18.20   15.40
  -5  -5   6  428.06   32.70
  -5  -5   6  392.06   27.20
  -5  -5   6  387.56   32.00
   4   5  -6  219.18   24.60
  -4  -5   6  216.28   21.70
  -4  -5   6  167.88   23.20
  -4  -5   6  196.88   24.60
   3   5  -6   14.20   12.20
   3   5  -6    1.40    6.60
  -3  -5   6    3.90   11.10
  -3  -5   6    0.10    8.60
  -3  -5   6    3.60   10.50
   2   5  -6  740.53   19.90
   2   5  -6  739.53   34.40
  -2  -5   6  722.43   34.70
  -2  -5   6  693.43   34.30
  -2  -5   6  683.93   28.70
   1   5  -6  814.42   25.10
   1   5  -6  879.01   35.70
  -1  -5   6  851.31   31.20
  -1  -5   6  831.42   35.50
  -1  -5   6  875.61   37.40
   0   5  -6  752.02   25.90
   0   5  -6  712.33   30.80
   0  -5   6  756.02   35.10
   0  -5   6  698.03   32.10
  -1   5  -6  316.07   18.80
  -1   5  -6  341.27   20.90
   1  -5   6  312.47   25.50
   1  -5   6  336.47   24.20
  -2   5  -6  762.32   30.50
  -2   5  -6  731.93   28.70
   2  -5   6  776.82   34.80
   2  -5   6  733.53   34.90
  -3   5  -6  171.78   18.60
  -3   5  -6  168.98   15.10
   3  -5   6  177.88   23.20
   3  -5   6  153.78   20.50
  -4   5  -6  175.08   14.40
  -4   5  -6  172.68   20.20
   4  -5   6  169.78   20.80
  -5   5  -6  330.57   26.70
  -5   5  -6  336.67   16.50
   5  -5   6  314.27   25.90
  -6   5  -6  230.68   24.60
  -6   5  -6  264.77   28.80
  -7   5  -6    2.80   13.40
  -7   5  -6   17.20   14.40
  -8   5  -6  413.96   38.40
  -8   5  -6  404.96   32.90
  -9   5  -6  143.79   25.30
  -9   5  -6  171.08   30.60
 -10   5  -6    2.40   16.20
 -10   5  -6    1.60   19.20
  -9  -4   6   48.30   19.20
  -9  -4   6   64.89   21.00
  -8  -4   6   -8.40   15.20
  -8  -4   6   26.90   16.80
  -7  -4   6  414.96   29.70
  -7  -4   6  435.66   36.40
  -7  -4   6  414.96   34.30
  -6  -4   6  328.27   30.70
  -6  -4   6  295.67   29.50
  -6  -4   6  272.07   23.70
  -5  -4   6    0.40   12.00
  -5  -4   6    8.60   11.70
  -5  -4   6    8.70   10.10
   4   4  -6  372.76   17.10
  -4  -4   6  427.56   29.40
  -4  -4   6  389.76   22.50
  -4  -4   6  367.46   27.70
   3   4  -6  916.71   37.50
   3   4  -6  962.30   30.40
  -3  -4   6  912.91   39.30
  -3  -4   6  945.81   32.60
  -3  -4   6  974.70   39.40
   2   4  -6    3.60    9.40
   2   4  -6   14.30    5.10
  -2  -4   6   15.00   10.20
  -2  -4   6   13.30   10.10
  -2  -4   6    4.50    7.40
   1   4  -6 1104.29   30.30
   1   4  -6 1105.19   38.70
  -1  -4   6 1102.79   40.00
  -1  -4   6 1134.49   40.40
   0   4  -6 2463.15   58.99
   0   4  -6 2492.35   63.69
   0  -4   6 2510.95   68.09
   0  -4   6 2547.65   68.69
  -1   4  -6  147.99   15.30
  -1   4  -6  153.58   14.40
   1  -4   6  165.48   19.80
   1  -4   6  157.38   20.60
  -2   4  -6  189.98   17.30
  -2   4  -6  211.98   15.20
   2  -4   6  238.28   21.50
   2  -4   6  226.38   22.20
  -3   4  -6 1462.65   38.40
  -3   4  -6 1495.55   47.80
   3  -4   6 1458.55   49.30
  -4   4  -6  542.85   19.10
  -4   4  -6  617.74   31.40
   4  -4   6  560.24   30.80
  -5   4  -6   14.90    6.40
  -5   4  -6   10.90   12.40
  -5   4  -6   10.00   11.50
   5  -4   6   21.40   11.50
  -6   4  -6  198.38   26.90
  -6   4  -6  207.28   24.40
  -7   4  -6  156.38   24.90
  -7   4  -6  191.68   28.90
  -8   4  -6    2.50   14.50
  -8   4  -6   20.10   16.00
  -9   4  -6   65.49   24.10
  -9   4  -6   85.39   21.70
 -10   4  -6  258.17   38.40
 -10   4  -6  238.18   32.90
 -10  -3   6    5.00   17.80
 -10  -3   6  -20.00   13.50
  -9  -3   6  317.97   33.90
  -9  -3   6  251.77   34.50
  -8  -3   6  344.77   32.50
  -8  -3   6  300.87   27.30
  -8  -3   6  397.86   36.90
  -7  -3   6   -5.10   10.00
  -7  -3   6    0.50   13.70
  -7  -3   6    1.10   12.90
  -6  -3   6  340.57   23.90
  -6  -3   6  304.17   29.00
  -6  -3   6  266.87   27.10
   5   3  -6  547.95   21.80
  -5  -3   6  611.24   27.00
  -5  -3   6  537.55   33.60
  -5  -3   6  571.34   31.80
   4   3  -6  115.99   12.30
  -4  -3   6  144.19   19.40
  -4  -3   6  150.08   14.30
  -4  -3   6  134.19   19.80
   3   3  -6  380.26   19.10
  -3  -3   6  414.36   24.60
  -3  -3   6  364.16   23.90
  -3  -3   6  387.26   17.90
   2   3  -6 2521.05   66.09
   2   3  -6 2409.16   53.29
  -2  -3   6 2496.55   56.49
  -2  -3   6 2575.04   66.29
  -2  -3   6 2445.86   66.59
   1   3  -6 1718.03   43.00
   1   3  -6 1747.53   49.20
  -1  -3   6 1767.62   49.80
  -1  -3   6 1800.02   52.39
   0   3  -6  112.99   13.40
   0   3  -6   90.19   12.20
   0  -3   6  107.99   16.90
   0  -3   6  123.89   18.20
  -1   3  -6 1745.73   48.00
  -1   3  -6 1797.12   45.60
   1  -3   6 1737.43   51.69
   1  -3   6 1858.51   54.69
  -2   3  -6 1278.47   40.30
  -2   3  -6 1233.88   33.30
   2  -3   6 1230.58   43.50
   2  -3   6 1240.28   43.20
  -3   3  -6   13.80    5.50
  -3   3  -6   10.90    9.60
  -3   3  -6   18.50   10.20
   3  -3   6   19.70   11.20
  -4   3  -6  574.74   29.90
  -4   3  -6  595.04   31.80
   4  -3   6  558.44   15.00
   4  -3   6  529.65   30.50
  -5   3  -6  603.14   32.70
  -5   3  -6  657.43   36.50
   5  -3   6  589.34   33.90
  -6   3  -6  141.49   22.20
  -6   3  -6  127.49   22.20
  -7   3  -6   74.99   17.20
  -7   3  -6  105.99   22.30
  -8   3  -6  293.77   31.20
  -8   3  -6  305.77   35.10
  -9   3  -6   77.39   23.70
  -9   3  -6  143.09   25.00
 -10   3  -6   12.90   20.40
 -10   3  -6   51.69   21.10
 -10  -2   6  273.37   36.10
 -10  -2   6  260.97   32.30
  -9  -2   6    2.60   14.10
  -9  -2   6   23.30   15.60
  -8  -2   6  316.77   29.70
  -8  -2   6  228.68   23.80
  -8  -2   6  247.88   30.20
  -7  -2   6  707.33   33.20
  -7  -2   6  774.22   42.70
  -7  -2   6  758.12   39.30
   6   2  -6  161.48   14.40
  -6  -2   6  201.38   24.00
  -6  -2   6  117.79   16.20
  -6  -2   6  161.58   20.90
   5   2  -6  107.49   12.60
  -5  -2   6  140.29   18.80
  -5  -2   6  126.19   13.50
  -5  -2   6  142.49   20.50
   4   2  -6  523.75   21.80
  -4  -2   6  521.75   20.20
  -4  -2   6  522.75   26.80
  -4  -2   6  551.24   29.90
   3   2  -6  478.95   21.50
  -3  -2   6  529.45   27.60
  -3  -2   6  525.85   17.10
  -3  -2   6  482.85   14.90
  -3  -2   6  472.75   24.00
   2   2  -6  110.29   10.40
   2   2  -6  117.39    8.60
  -2  -2   6  135.49   17.70
  -2  -2   6  109.39   14.70
   1   2  -6  484.75   19.60
   1   2  -6  478.45   15.70
  -1  -2   6  447.26   25.00
  -1  -2   6  509.25   22.60
   0   2  -6 1106.49   34.70
   0  -2   6 1280.97   42.20
   0  -2   6 1130.49   36.40
  -1   2  -6  116.69   14.90
  -1   2  -6  110.39   12.90
   1  -2   6  114.39   17.50
   1  -2   6   95.19   15.60
  -2   2  -6  900.61   32.90
  -2   2  -6  914.41   33.40
   2  -2   6  977.90   37.60
  -3   2  -6 1339.97   43.90
  -3   2  -6 1291.17   44.60
   3  -2   6 1324.17   46.10
   3  -2   6 1246.98   27.50
  -4   2  -6  107.99   19.00
  -4   2  -6  103.49   16.70
   4  -2   6  107.09   17.60
  -5   2  -6  181.08   21.90
  -5   2  -6  169.68   23.40
  -6   2  -6  773.02   38.40
  -6   2  -6  796.92   43.60
  -7   2  -6  272.37   31.50
  -7   2  -6  289.47   29.40
  -8   2  -6   -8.90   12.20
  -8   2  -6  -13.90   13.20
  -9   2  -6  230.48   32.20
  -9   2  -6  165.28   29.90
 -10   2  -6  110.69   25.60
 -10   2  -6  149.09   26.40
 -10   2  -6  157.38   31.70
 -11  -1   6    3.40   15.20
 -11  -1   6    4.70   16.90
 -10  -1   6  111.39   24.10
 -10  -1   6  173.88   28.20
  -9  -1   6  338.37   31.70
  -9  -1   6  336.87   34.50
  -9  -1   6  247.68   25.30
  -8  -1   6   80.19   19.20
  -8  -1   6   50.09   13.60
  -8  -1   6   54.09   15.20
   7   1  -6  148.39   16.30
  -7  -1   6   93.69   16.30
  -7  -1   6  109.79   17.90
  -7  -1   6   68.29   16.40
   6   1  -6  561.94   25.10
  -6  -1   6  616.34   34.30
  -6  -1   6  554.34   18.60
  -6  -1   6  607.14   30.70
  -6  -1   6  532.65   24.90
   5   1  -6  530.65   23.90
  -5  -1   6  572.14   22.50
  -5  -1   6  591.74   32.10
  -5  -1   6  575.44   28.10
   4   1  -6    2.10    6.90
  -4  -1   6   14.90   10.10
  -4  -1   6    8.30    7.80
  -4  -1   6    8.20    5.20
   3   1  -6  549.25   23.70
   3   1  -6  595.24   18.50
  -3  -1   6  541.65   23.30
  -3  -1   6  595.14   15.10
  -3  -1   6  618.54   28.80
   2   1  -6 1564.94   39.40
  -2  -1   6 1653.63   48.30
  -2  -1   6 1601.84   42.50
   1   1  -6  758.72   26.10
   1   1  -6  768.12   18.60
  -1  -1   6  715.63   25.50
  -1  -1   6  716.13   29.50
   0   1  -6  620.64   25.60
   0   1  -6  680.53   21.60
   0  -1   6  682.93   25.20
   0  -1   6  681.93   30.60
  -1   1  -6 1510.65   41.90
  -1   1  -6 1584.94   45.10
   1  -1   6 1480.65   46.80
  -2   1  -6  196.88   17.20
  -2   1  -6  222.88   19.60
   2  -1   6  200.68    9.50
   2  -1   6  214.68   21.30
  -3   1  -6  447.86   26.40
  -3   1  -6  490.85   26.70
   3  -1   6  432.26   27.10
  -4   1  -6  990.40   40.00
  -4   1  -6  987.00   41.90
   4  -1   6  979.90   41.40
  -5   1  -6  317.07   28.00
  -5   1  -6  393.16   28.00
  -6   1  -6   -7.30   12.40
  -6   1  -6   18.60   13.90
  -7   1  -6  520.85   35.70
  -7   1  -6  454.25   38.00
  -8   1  -6  374.96   38.40
  -8   1  -6  329.37   33.60
  -9   1  -6   -0.40   19.30
  -9   1  -6    3.80   16.70
  -9   1  -6   29.00   18.40
 -10   1  -6   95.49   25.50
 -10   1  -6  123.39   28.80
 -10   1  -6  119.79   26.40
 -11   0   6  242.18   34.10
 -11   0   6  251.97   31.90
 -10   0   6   71.69   21.60
 -10   0   6   81.59   19.70
  -9   0   6   88.69   18.00
  -9   0   6   81.49   16.80
  -9   0   6   96.59   20.80
   8   0  -6  547.65   28.00
  -8   0   6  539.35   36.30
  -8   0   6  518.95   31.90
  -8   0   6  508.45   29.70
   7   0  -6  471.55   25.80
  -7   0   6  453.35   32.00
  -7   0   6  481.85   28.80
  -7   0   6  513.05   21.00
  -7   0   6  510.15   26.60
   6   0  -6   -2.90    7.60
  -6   0   6   -2.80    6.70
  -6   0   6    6.90    8.50
  -6   0   6  -10.20    9.30
   5   0  -6  562.94   25.70
  -5   0   6  553.84   25.20
  -5   0   6  646.24   31.40
  -5   0   6  597.04   22.10
   4   0  -6 1527.85   44.50
  -4   0   6 1566.04   48.80
  -4   0   6 1626.24   37.40
  -4   0   6 1637.94   44.00
   3   0  -6  247.28   13.50
   3   0  -6  238.08   17.60
  -3   0   6  240.48   19.20
  -3   0   6  225.48   14.50
   2   0  -6  270.37   15.60
   2   0  -6  348.77   20.90
  -2   0   6  314.57   19.20
  -2   0   6  330.17   15.10
   1   0  -6 1805.72   39.20
   1   0  -6 1798.02   46.80
  -1   0   6 1803.62   39.20
  -1   0   6 1794.22   43.00
  -1   0   6 1771.02   51.49
   0   0  -6  733.23   28.50
   0   0  -6  732.63   24.10
   0   0   6  741.93   31.40
  -1   0  -6  226.78   16.10
  -1   0  -6  233.78   19.80
   1   0   6  218.28   20.90
   1   0   6  222.78   11.90
  -2   0  -6 1011.20   37.60
  -2   0  -6  985.10   36.00
   2   0   6  991.60   38.30
   2   0   6  988.40   24.10
  -3   0  -6  601.84   29.30
  -3   0  -6  618.24   31.20
   3   0   6  586.74   30.90
  -4   0  -6    5.10   10.40
  -4   0  -6   29.30   13.20
  -5   0  -6  224.48   26.60
  -5   0  -6  266.37   24.40
  -6   0  -6  797.72   40.70
  -6   0  -6  713.93   42.30
  -7   0  -6   54.89   19.60
  -7   0  -6   22.10   15.70
  -7   0  -6   33.90   15.80
  -8   0  -6  159.58   27.00
  -8   0  -6  119.89   23.20
  -8   0  -6   63.89   21.70
  -9   0  -6  430.56   45.50
  -9   0  -6  361.86   39.70
  -9   0  -6  356.76   38.20
 -11   1   6    8.30   13.90
 -11   1   6   25.20   16.90
 -10   1   6  219.18   30.90
 -10   1   6  205.38   25.80
 -10   1   6  232.28   27.20
   9  -1  -6  301.27   25.00
  -9   1   6  294.77   30.40
  -9   1   6  316.77   26.90
  -9   1   6  284.87   26.00
   8  -1  -6  209.88   21.80
  -8   1   6  225.28   21.80
  -8   1   6  196.18   16.90
  -8   1   6  215.48   22.30
  -8   1   6  241.58   26.20
   7  -1  -6  393.36   24.70
  -7   1   6  381.36   28.30
  -7   1   6  338.97   22.60
  -7   1   6  354.96   23.90
  -7   1   6  406.96   20.50
   6  -1  -6  788.22   32.60
  -6   1   6  798.62   36.00
  -6   1   6  796.12   29.60
  -6   1   6  763.02   30.60
   5  -1  -6  179.08   17.10
  -5   1   6  161.18   14.20
  -5   1   6  201.68   13.70
  -5   1   6  172.08   18.30
   4  -1  -6 1217.58   38.10
  -4   1   6 1196.08   33.20
  -4   1   6 1120.79   30.00
  -4   1   6 1099.19   38.30
   3  -1  -6 2216.78   54.09
   3  -1  -6 2267.47   58.09
  -3   1   6 2253.67   46.90
  -3   1   6 2255.97   50.19
  -3   1   6 2173.18   57.99
   2  -1  -6 1306.37   30.70
   2  -1  -6 1305.77   39.90
   2  -1  -6 1305.47   30.50
   2  -1  -6 1274.07   37.40
  -2   1   6 1329.07   31.10
  -2   1   6 1381.46   30.60
  -2   1   6 1292.97   40.20
   1  -1  -6   50.89   10.30
   1  -1  -6   42.40    6.30
   1  -1  -6   75.89   10.10
  -1   1   6   50.79   11.00
   0  -1  -6 1933.91   52.29
   0  -1  -6 1957.10   48.70
   0   1   6 1887.81   46.50
   0   1   6 1823.82   52.79
  -1  -1  -6  647.64   27.40
  -1  -1  -6  706.03   30.30
   1   1   6  674.93   30.00
   1   1   6  634.14   21.10
  -2  -1  -6   28.80   11.40
  -2  -1  -6    1.70    9.90
   2   1   6   13.20   10.20
   2   1   6   22.20    5.30
  -3  -1  -6  797.22   35.30
  -3  -1  -6  812.62   37.90
   3   1   6  791.92   20.90
   3   1   6  810.32   36.60
  -4  -1  -6  371.16   30.00
  -4  -1  -6  380.96   25.90
  -5  -1  -6  300.17   27.50
  -5  -1  -6  280.77   30.90
  -6  -1  -6  125.99   20.40
  -6  -1  -6  152.78   23.80
  -6  -1  -6  126.39   24.20
  -7  -1  -6  368.76   33.30
  -7  -1  -6  325.87   36.80
  -7  -1  -6  235.08   28.40
  -8  -1  -6   67.79   23.30
  -8  -1  -6   96.09   23.20
  -8  -1  -6   57.49   19.90
  -9  -1  -6   44.70   20.50
  -9  -1  -6   17.00   17.10
  -9  -1  -6   26.10   22.00
 -12   2   6  109.09   25.00
 -12   2   6  129.19   24.40
 -11   2   6  207.78   26.10
 -11   2   6  188.98   29.60
 -11   2   6  207.38   28.60
  10  -2  -6   21.80   12.50
 -10   2   6    1.50   13.10
 -10   2   6  -10.60   11.40
 -10   2   6    7.60   12.10
   9  -2  -6   90.59   17.20
  -9   2   6   82.09   17.20
  -9   2   6   90.39   14.30
  -9   2   6   96.29   17.10
  -9   2   6   77.59   17.70
   8  -2  -6 1039.80   42.40
  -8   2   6 1010.10   41.80
  -8   2   6 1102.49   47.10
  -8   2   6 1071.89   41.90
  -8   2   6 1068.19   38.70
   7  -2  -6  321.17   23.70
  -7   2   6  319.67   22.60
  -7   2   6  324.47   25.50
  -7   2   6  338.27   21.90
   6  -2  -6   14.30    9.70
  -6   2   6    1.00    8.40
  -6   2   6   11.50    8.00
  -6   2   6   18.50    7.90
   5  -2  -6 1303.47   43.10
  -5   2   6 1251.37   41.60
  -5   2   6 1237.48   35.80
   4  -2  -6  652.33   28.70
  -4   2   6  641.34   20.60
  -4   2   6  638.14   26.70
   3  -2  -6   26.90    9.90
  -3   2   6   27.20    8.60
  -3   2   6   25.50    4.40
   2  -2  -6 2591.44   58.39
   2  -2  -6 2616.44   63.69
   2  -2  -6 2608.34   65.79
  -2   2   6 2519.05   64.39
  -2   2   6 2581.94   64.39
   1  -2  -6  850.61   20.30
   1  -2  -6  813.82   31.30
   1  -2  -6  864.91   30.60
   1  -2  -6  821.42   27.80
  -1   2   6  779.52   30.20
  -1   2   6  833.92   28.50
   0  -2  -6  103.39   15.20
   0  -2  -6  120.49   17.50
   0   2   6  132.79   12.90
   0   2   6  153.08   17.30
  -1  -2  -6  335.37   21.80
  -1  -2  -6  302.27   22.50
   1   2   6  288.67   20.70
   1   2   6  330.57   15.80
  -2  -2  -6 1442.06   49.10
  -2  -2  -6 1449.55   47.00
   2   2   6 1423.96   47.40
   2   2   6 1401.66   36.70
  -3  -2  -6  320.57   25.30
  -3  -2  -6  339.17   22.20
  -3  -2  -6  325.17   25.30
   3   2   6  322.37   15.20
  -4  -2  -6  246.98   22.70
  -4  -2  -6  248.08   27.50
  -4  -2  -6  246.58   24.90
   4   2   6  230.38   14.30
  -5  -2  -6  870.91   42.40
  -5  -2  -6  833.02   40.40
  -5  -2  -6  811.52   44.50
  -6  -2  -6   53.49   16.90
  -6  -2  -6   63.29   17.40
  -6  -2  -6   83.99   21.30
  -7  -2  -6  -37.80   12.80
  -7  -2  -6  -14.50   17.20
  -7  -2  -6    7.50   14.70
  -8  -2  -6  211.38   37.10
  -8  -2  -6  136.59   25.70
  -8  -2  -6  141.09   24.00
  -9  -2  -6   69.99   22.50
  -9  -2  -6  106.39   30.00
 -12   3   6   -6.30   13.30
 -12   3   6   -0.20   16.10
  11  -3  -6   80.59   20.10
 -11   3   6   98.89   21.80
 -11   3   6   93.59   19.20
 -11   3   6   81.29   19.30
  10  -3  -6  271.47   28.20
 -10   3   6  174.18   26.90
 -10   3   6  241.08   22.60
 -10   3   6  232.88   26.70
 -10   3   6  252.57   28.50
 -10   3   6  245.38   25.80
   9  -3  -6  127.29   21.00
  -9   3   6   95.39   18.00
  -9   3   6  140.09   22.70
  -9   3   6   96.99   16.40
  -9   3   6  137.19   18.30
  -9   3   6   98.79   18.20
   8  -3  -6   60.29   15.10
  -8   3   6   56.69   13.80
  -8   3   6   48.40   12.30
  -8   3   6   82.29   17.10
  -8   3   6   51.49   13.60
   7  -3  -6  528.25   30.60
  -7   3   6  543.85   31.70
  -7   3   6  604.64   26.90
  -7   3   6  553.74   28.80
  -7   3   6  539.75   29.70
   6  -3  -6  982.00   39.40
  -6   3   6 1015.20   41.50
  -6   3   6 1044.80   32.80
  -6   3   6  992.40   37.20
   5  -3  -6   14.80    9.40
  -5   3   6    4.10    7.20
  -5   3   6    4.70    5.40
  -5   3   6    6.60    9.60
   4  -3  -6  757.72   31.90
  -4   3   6  688.43   26.90
  -4   3   6  711.53   31.70
  -4   3   6  734.83   19.70
   3  -3  -6 1356.06   43.50
   3  -3  -6 1437.26   39.40
  -3   3   6 1430.36   43.80
  -3   3   6 1443.86   41.10
   2  -3  -6   29.40   10.80
   2  -3  -6   26.00    8.70
   2  -3  -6   27.20    9.50
  -2   3   6   31.80    9.20
  -2   3   6   23.50    9.80
   1  -3  -6  997.10   34.40
   1  -3  -6  990.40   35.60
   1  -3  -6 1004.10   34.40
   1  -3  -6  992.30   22.80
  -1   3   6  973.10   33.10
  -1   3   6  962.40   33.20
   0  -3  -6 1811.72   51.39
   0  -3  -6 1932.31   54.39
   0  -3  -6 1896.91   53.79
   0  -3  -6 1882.61   43.90
   0   3   6 1799.32   51.09
   0   3   6 1849.42   49.20
  -1  -3  -6  416.46   22.60
  -1  -3  -6  387.16   19.00
  -1  -3  -6  407.36   25.50
  -1  -3  -6  405.06   25.40
   1   3   6  396.46   23.00
   1   3   6  430.56   19.70
  -2  -3  -6  102.49   13.50
  -2  -3  -6  165.18   18.50
  -2  -3  -6  150.48   21.10
   2   3   6  129.99   12.80
  -3  -3  -6  876.81   36.30
  -3  -3  -6  974.50   40.10
  -3  -3  -6  881.11   42.90
   3   3   6 1001.00   31.10
  -4  -3  -6  472.25   29.90
  -4  -3  -6  477.05   35.90
  -4  -3  -6  468.15   30.80
   4   3   6  543.65   28.80
  -5  -3  -6   -5.90   12.10
  -5  -3  -6   17.50   13.60
  -5  -3  -6    3.20   15.30
  -6  -3  -6  161.78   27.80
  -6  -3  -6  200.88   27.20
  -6  -3  -6  221.28   27.40
  -7  -3  -6  166.68   28.20
  -7  -3  -6  119.29   27.10
  -7  -3  -6  147.49   24.40
  -8  -3  -6    0.80   16.00
  -8  -3  -6  -15.80   18.90
  -8  -3  -6  -10.50   21.50
  12  -4  -6  103.69   22.00
 -12   4   6  147.69   25.80
 -12   4   6  160.58   28.50
  11  -4  -6   71.49   18.20
 -11   4   6   30.40   14.50
 -11   4   6   27.20   14.60
 -11   4   6   51.29   16.90
 -11   4   6   31.40   17.70
 -11   4   6   55.49   17.50
  10  -4  -6   76.59   18.90
 -10   4   6   32.00   15.40
 -10   4   6   25.80   12.70
 -10   4   6   42.80   14.50
 -10   4   6   44.90   16.60
 -10   4   6   26.50   12.80
   9  -4  -6  327.47   28.60
  -9   4   6  262.87   25.00
  -9   4   6  307.87   24.30
  -9   4   6  291.87   23.70
  -9   4   6  232.18   25.10
  -9   4   6  285.07   27.40
   8  -4  -6  327.57   27.60
  -8   4   6  306.27   24.20
  -8   4   6  310.67   26.40
  -8   4   6  324.77   23.00
   7  -4  -6   -2.20   10.80
  -7   4   6    1.70    7.90
  -7   4   6   -9.40    6.50
  -7   4   6    3.00   11.10
   6  -4  -6  780.42   36.40
  -6   4   6  851.31   37.20
  -6   4   6  833.92   27.90
  -6   4   6  815.42   32.00
   5  -4  -6 1192.68   43.50
  -5   4   6 1157.38   30.70
  -5   4   6 1119.79   36.20
  -5   4   6 1178.68   43.10
   4  -4  -6   26.30   10.10
  -4   4   6   27.70   10.60
  -4   4   6   41.10    5.40
  -4   4   6   52.39    9.30
  -4   4   6   46.10    6.20
   3  -4  -6  443.06   22.80
   3  -4  -6  467.25   25.90
  -3   4   6  510.05   22.00
  -3   4   6  534.75   26.80
   2  -4  -6  999.10   36.30
   2  -4  -6  971.00   36.20
   2  -4  -6  988.70   35.50
  -2   4   6 1059.79   37.10
  -2   4   6 1020.20   32.00
   1  -4  -6  393.16   24.10
   1  -4  -6  452.15   14.70
   1  -4  -6  390.26   22.30
   1  -4  -6  487.95   25.40
  -1   4   6  404.76   22.60
  -1   4   6  419.16   20.60
   0  -4  -6    3.30    9.30
   0  -4  -6    8.00    6.00
   0  -4  -6    1.80    9.60
   0  -4  -6   -2.70    8.00
   0   4   6    7.20    8.00
   0   4   6   10.20    7.70
  -1  -4  -6  542.15   28.50
  -1  -4  -6  512.55   24.50
  -1  -4  -6  523.95   22.60
  -1  -4  -6  529.75   31.10
   1   4   6  492.45   23.80
  -2  -4  -6  558.94   25.70
  -2  -4  -6  501.05   25.50
  -2  -4  -6  567.24   34.20
  -2  -4  -6  528.15   29.50
   2   4   6  486.85   24.50
  -3  -4  -6    0.30   13.60
  -3  -4  -6   12.10    9.80
  -3  -4  -6    4.60   11.40
  -3  -4  -6   -6.30    9.10
   3   4   6   14.90    9.00
  -4  -4  -6  363.16   32.70
  -4  -4  -6  349.27   29.20
  -4  -4  -6  369.06   28.20
  -5  -4  -6  355.96   29.50
  -5  -4  -6  383.06   30.50
  -5  -4  -6  395.06   37.20
  -6  -4  -6    7.80   14.30
  -6  -4  -6    4.50   14.30
  -6  -4  -6    1.50   18.00
  -7  -4  -6  168.28   31.90
  -7  -4  -6  104.19   23.20
  -7  -4  -6   94.59   21.20
  -8  -4  -6  274.97   35.20
  -8  -4  -6  301.17   42.00
  12  -5  -6  -23.70   13.00
  11  -5  -6  152.98   26.90
 -11   5   6  143.29   25.10
 -11   5   6  165.68   25.50
 -11   5   6  136.39   20.90
 -11   5   6  111.19   21.10
 -11   5   6   96.39   21.30
  10  -5  -6  206.98   27.50
 -10   5   6  205.48   22.60
 -10   5   6  199.68   22.50
 -10   5   6  169.78   22.90
 -10   5   6  156.48   26.70
 -10   5   6  203.28   26.80
   9  -5  -6   21.60   14.10
  -9   5   6   15.60   10.70
  -9   5   6   23.40   11.60
  -9   5   6   12.30   13.20
   8  -5  -6  286.17   28.00
  -8   5   6  272.07   26.30
  -8   5   6  294.77   23.00
  -8   5   6  288.87   21.30
   7  -5  -6  338.17   28.20
  -7   5   6  364.16   27.80
  -7   5   6  362.86   19.80
  -7   5   6  332.77   21.70
   6  -5  -6    5.20   12.00
  -6   5   6   22.30   12.10
  -6   5   6   17.00    8.20
  -6   5   6   22.50    6.90
   5  -5  -6  737.93   35.00
  -5   5   6  753.22   35.00
  -5   5   6  700.73   26.10
   4  -5  -6 1415.46   47.90
  -4   5   6 1412.86   39.70
  -4   5   6 1459.45   31.40
  -4   5   6 1481.45   49.90
   3  -5  -6  671.93   30.70
   3  -5  -6  635.54   30.10
  -3   5   6  646.84   23.20
  -3   5   6  637.24   31.40
   2  -5  -6   54.59    7.00
   2  -5  -6   46.40   11.40
   2  -5  -6   38.80   12.80
  -2   5   6   47.40    8.30
  -2   5   6   54.69   11.80
   1  -5  -6  407.76   27.10
   1  -5  -6  407.36   22.80
   1  -5  -6  401.66   16.50
   1  -5  -6  407.16   24.00
  -1   5   6  387.66   24.00
  -1   5   6  397.26   19.80
   0  -5  -6  354.66   24.80
   0  -5  -6  323.67   26.80
   0  -5  -6  344.67   21.00
   0  -5  -6  392.56   19.10
   0   5   6  374.96   23.10
  -1  -5  -6   14.80   12.80
  -1  -5  -6   12.60    8.90
  -1  -5  -6    4.20   10.80
  -1  -5  -6    4.10    7.90
   1   5   6   -5.90    8.90
  -2  -5  -6  334.67   25.40
  -2  -5  -6  314.87   22.40
  -2  -5  -6  329.57   31.10
  -2  -5  -6  367.96   21.30
   2   5   6  340.67   23.20
  -3  -5  -6  642.74   35.10
  -3  -5  -6  672.03   27.80
  -3  -5  -6  687.23   33.80
  -3  -5  -6  620.94   41.80
   3   5   6  666.73   30.60
  -4  -5  -6  258.67   26.10
  -4  -5  -6  231.88   32.20
  -4  -5  -6  278.57   27.00
  -5  -5  -6   62.99   21.20
  -5  -5  -6   27.40   14.50
  -5  -5  -6   50.99   16.10
  -6  -5  -6  272.17   29.10
  -6  -5  -6  212.58   36.60
  -6  -5  -6  241.78   29.00
  -7  -5  -6   87.69   21.20
  -7  -5  -6   56.89   25.70
  12  -6  -6  141.99   26.30
 -12   6   6  109.19   20.50
  11  -6  -6   16.50   16.50
 -11   6   6  -21.70   11.30
 -11   6   6   14.00   13.20
 -11   6   6  -16.30   13.70
  10  -6  -6  161.28   27.30
 -10   6   6  144.59   24.10
 -10   6   6  167.58   27.50
 -10   6   6  153.28   23.60
   9  -6  -6  499.05   36.00
  -9   6   6  524.05   35.10
   8  -6  -6  139.79   24.00
  -8   6   6   82.59   14.60
  -8   6   6   67.99   16.90
  -8   6   6   97.09   16.50
   7  -6  -6   57.19   15.00
  -7   6   6  103.99   18.80
  -7   6   6   61.29   10.90
   6  -6  -6  363.36   28.40
  -6   6   6  321.87   25.60
  -6   6   6  343.27   18.10
   5  -6  -6  130.59   20.60
  -5   6   6  115.89   12.50
  -5   6   6   78.29   15.40
   4  -6  -6   10.10   10.00
   4  -6  -6   27.10   11.80
  -4   6   6    5.70   10.10
  -4   6   6   20.40    6.30
   3  -6  -6  472.15   27.50
   3  -6  -6  441.56   28.70
  -3   6   6  475.75   28.80
  -3   6   6  487.25   17.90
   2  -6  -6  458.05   30.10
   2  -6  -6  487.05   18.60
   2  -6  -6  509.25   26.50
  -2   6   6  492.55   28.60
   1  -6  -6   45.40    9.00
   1  -6  -6   51.49   16.00
   1  -6  -6   75.79   14.70
   1  -6  -6   41.80   11.20
  -1   6   6   49.99   13.70
   0  -6  -6  102.49   19.60
   0  -6  -6  126.99   19.60
   0  -6  -6  136.99   16.90
   0  -6  -6  107.69   14.50
   0   6   6   98.19   16.40
  -1  -6  -6  436.36   22.80
  -1  -6  -6  402.36   24.30
  -1  -6  -6  439.36   34.30
  -1  -6  -6  430.26   28.40
   1   6   6  392.76   26.90
  -2  -6  -6   87.89   13.50
  -2  -6  -6   77.49   18.40
  -2  -6  -6   63.39   15.40
  -2  -6  -6   59.89   13.60
   2   6   6   80.69   15.10
  -3  -6  -6   51.09   14.70
  -3  -6  -6   41.70   14.70
  -3  -6  -6   18.50   15.90
   3   6   6   22.70   13.10
  -4  -6  -6  268.07   27.70
  -4  -6  -6  181.78   29.70
  -4  -6  -6  180.28   25.80
  -5  -6  -6   81.29   17.10
  -5  -6  -6   83.69   20.00
  -5  -6  -6   99.99   25.30
  -6  -6  -6   39.30   21.80
  -6  -6  -6   27.50   16.10
  11  -7  -6  123.79   25.30
 -11   7   6  246.88   31.60
 -11   7   6  192.88   25.30
 -11   7   6  174.68   29.20
  10  -7  -6  107.29   23.00
 -10   7   6   85.79   18.10
 -10   7   6   89.69   20.60
   9  -7  -6   37.80   16.70
  -9   7   6   18.70   14.00
   8  -7  -6  475.35   34.10
  -8   7   6  513.95   35.40
   7  -7  -6  279.97   28.80
  -7   7   6  280.37   27.30
   6  -7  -6  -13.00   11.30
  -6   7   6  -11.70   11.40
   5  -7  -6  233.58   24.90
  -5   7   6  237.18   25.20
   4  -7  -6  224.78   25.00
   4  -7  -6  248.58   23.90
  -4   7   6  238.08   24.40
   3  -7  -6   61.69   16.30
   3  -7  -6   56.99   13.90
  -3   7   6   39.40   13.80
   2  -7  -6  357.16   24.40
   2  -7  -6  441.66   28.60
   2  -7  -6  398.26   31.20
  -2   7   6  382.46   27.80
   1  -7  -6  430.86   22.50
   1  -7  -6  483.65   26.40
   1  -7  -6  477.05   35.20
  -1   7   6  430.06   29.10
   0  -7  -6   50.39   11.90
   0  -7  -6   52.69   15.40
   0  -7  -6   76.19   19.60
   0  -7  -6   40.00   11.20
   0   7   6   63.99   15.30
  -1  -7  -6  239.38   22.30
  -1  -7  -6  223.58   25.20
  -1  -7  -6  229.08   18.70
  -1  -7  -6  261.87   29.70
   1   7   6  233.58   24.00
  -2  -7  -6  334.27   25.90
  -2  -7  -6  284.17   34.40
  -2  -7  -6  309.67   27.90
   2   7   6  368.46   27.40
  -3  -7  -6  118.69   19.60
  -3  -7  -6  100.99   19.20
  -3  -7  -6   78.59   22.90
   3   7   6  125.99   20.00
  -4  -7  -6   23.00   19.90
  -4  -7  -6    8.10   14.70
  -4  -7  -6   10.10   12.70
  -5  -7  -6  134.09   24.50
  -5  -7  -6  222.98   37.60
  -6  -7  -6   52.09   20.20
  -6  -7  -6   94.69   28.40
  11  -8  -6    6.50   16.60
 -11   8   6    9.40   16.00
 -11   8   6    3.70   15.00
  10  -8  -6  226.88   31.90
 -10   8   6  288.87   30.90
   9  -8  -6  203.18   30.50
  -9   8   6  249.28   29.60
   8  -8  -6   -8.50   13.60
  -8   8   6  -10.20   12.70
   7  -8  -6  149.59   23.20
  -7   8   6   83.69   18.90
   6  -8  -6  388.16   31.30
  -6   8   6  333.37   28.00
   5  -8  -6  139.09   23.10
  -5   8   6  118.69   20.40
   4  -8  -6   13.70   12.50
   4  -8  -6    1.60   13.50
  -4   8   6   31.50   14.60
   3  -8  -6  829.12   44.80
   3  -8  -6  908.41   39.30
  -3   8   6  781.52   40.40
   2  -8  -6  116.39   18.10
   2  -8  -6  127.59   22.20
  -2   8   6  172.08   24.10
   1  -8  -6   61.29   12.80
   1  -8  -6   64.99   19.80
  -1   8   6   66.69   16.10
   0  -8  -6  458.15   39.00
   0  -8  -6  488.55   26.70
   0   8   6  479.65   32.80
  -1  -8  -6  184.38   31.40
   1   8   6  226.18   26.30
  -2  -8  -6  -17.50   10.60
  -2  -8  -6  -15.70   15.80
   2   8   6   -4.50   13.00
  -3  -8  -6  209.28   34.00
  -3  -8  -6  169.08   24.80
   3   8   6  141.49   23.20
  -4  -8  -6  142.09   32.20
  -5  -8  -6   -9.60   17.80
  11  -9  -6  115.89   25.20
 -11   9   6  163.88   27.00
 -11   9   6  109.89   22.70
  10  -9  -6    7.30   16.70
 -10   9   6    7.00   14.00
   9  -9  -6   59.09   18.50
  -9   9   6   59.09   18.10
   8  -9  -6  166.58   28.10
  -8   9   6  163.48   27.20
   7  -9  -6   45.30   17.30
  -7   9   6   47.80   17.60
   6  -9  -6   91.99   20.40
  -6   9   6  106.99   21.40
   5  -9  -6  370.76   31.40
  -5   9   6  339.67   31.50
   4  -9  -6  334.57   33.40
   4  -9  -6  230.98   24.90
  -4   9   6  276.17   29.70
   3  -9  -6   -4.60   14.20
   3  -9  -6   13.50   12.00
  -3   9   6    1.20   13.50
   2  -9  -6   62.09   20.20
   2  -9  -6   70.19   14.70
  -2   9   6   75.29   18.80
   1  -9  -6  145.49   21.90
   1  -9  -6  179.48   31.50
  -1   9   6  129.99   22.10
   0  -9  -6   -4.20   15.80
   0   9   6    0.00   14.10
  -1  -9  -6  195.78   30.90
   1   9   6  215.28   27.90
  -2  -9  -6  202.68   33.10
   2   9   6  191.98   28.80
  -3  -9  -6   18.10   21.00
  -4  -9  -6   35.80   24.20
  10 -10  -6   94.89   25.10
 -10  10   6   82.89   20.00
   9 -10  -6   12.50   15.60
  -9  10   6   42.60   19.00
   8 -10  -6   24.30   17.80
  -8  10   6   47.00   18.10
   7 -10  -6   90.59   21.50
  -7  10   6  134.79   24.30
   6 -10  -6   75.79   19.60
  -6  10   6   40.70   17.80
   5 -10  -6   40.90   14.40
  -5  10   6   26.20   16.90
   4 -10  -6  230.58   33.40
   4 -10  -6  141.19   23.70
  -4  10   6  154.58   27.20
   3 -10  -6  114.49   19.60
   3 -10  -6  200.28   31.30
  -3  10   6  126.79   22.60
   2 -10  -6    0.80   17.80
  -2  10   6   23.00   15.80
   1 -10  -6   86.69   24.00
  -1  10   6   80.79   19.80
   0 -10  -6  252.47   36.80
   0  10   6  196.48   29.60
  -1 -10  -6   43.10   22.90
   1  10   6   47.10   19.70
  -2 -10  -6   13.90   22.20
   2  10   6   37.50   18.40
   9 -11  -6  109.59   26.60
  -9  11   6   99.19   24.60
   8 -11  -6   15.60   16.10
  -8  11   6   11.20   17.60
   7 -11  -6   18.10   15.90
  -7  11   6   16.40   17.00
   6 -11  -6  103.09   21.70
  -6  11   6   57.89   21.00
   5 -11  -6   71.39   19.60
  -5  11   6  143.49   25.60
   4 -11  -6   10.40   18.00
   4 -11  -6   11.80   14.10
  -4  11   6    4.60   16.60
   3 -11  -6   65.79   22.60
  -3  11   6   72.49   19.90
   2 -11  -6   66.29   23.20
  -2  11   6  150.68   27.90
   1 -11  -6    9.30   19.90
  -1  11   6    6.90   17.00
   0 -11  -6   -4.10   20.90
   0  11   6   13.40   17.40
  -1 -11  -6   64.09   25.20
   1  11   6   50.79   21.00
   8 -12  -6   41.00   22.20
  -8  12   6   41.10   20.80
   7 -12  -6   90.39   23.40
  -7  12   6   45.10   19.20
   6 -12  -6   19.70   15.70
  -6  12   6  -15.30   16.60
   5 -12  -6   41.00   16.80
  -5  12   6   22.80   20.10
   4 -12  -6   80.59   25.30
  -4  12   6  104.19   26.60
   3 -12  -6    1.00   19.20
  -3  12   6   61.69   21.80
   2 -12  -6   17.80   20.60
  -2  12   6   -2.00   19.00
   1 -12  -6  101.19   29.10
  -1  12   6   80.29   25.10
   0  12  -7   17.40   19.30
   0 -12   7   61.39   26.40
  -1  12  -7   14.80   19.40
   1 -12   7    7.40   21.30
  -2  12  -7   94.49   24.00
   2 -12   7   35.30   22.60
  -3  12  -7   87.79   23.50
   3 -12   7  121.19   28.40
  -4  12  -7   44.10   19.80
   4 -12   7   28.10   22.30
  -5  12  -7    8.50   16.50
  -5  12  -7   -2.70   13.90
   5 -12   7    7.40   21.20
  -6  12  -7   65.59   20.50
   3  11  -7   27.00   21.20
  -3 -11   7   26.20   23.20
   2  11  -7  120.09   25.50
  -2 -11   7  114.79   25.90
  -2 -11   7   80.59   25.40
   1  11  -7   24.10   19.60
  -1 -11   7   29.30   20.70
   0  11  -7   20.80   18.20
   0 -11   7   40.60   21.80
  -1  11  -7  102.69   23.50
   1 -11   7  147.69   28.80
  -2  11  -7   35.70   18.10
   2 -11   7   30.10   22.50
  -3  11  -7   23.40   15.80
   3 -11   7   15.30   20.20
  -4  11  -7   68.39   18.10
  -4  11  -7   83.99   19.90
   4 -11   7  110.49   27.20
  -5  11  -7   84.49   19.70
  -5  11  -7   73.69   19.60
   5 -11   7   78.29   24.30
  -6  11  -7    3.50   15.50
  -7  11  -7   43.20   19.80
   4  10  -7   84.09   22.70
  -4 -10   7   82.09   26.70
   3  10  -7   70.19   21.50
  -3 -10   7   19.10   19.50
  -3 -10   7   40.80   19.60
   2  10  -7   38.90   19.60
  -2 -10   7   28.00   16.40
  -2 -10   7   26.30   19.80
   1  10  -7  243.08   29.90
  -1 -10   7  240.88   36.00
   0  10  -7  123.09   23.80
   0 -10   7   81.39   22.00
  -1  10  -7   39.80   17.30
   1 -10   7   37.90   20.00
  -2  10  -7  223.78   28.60
   2 -10   7  194.18   33.80
  -3  10  -7   99.39   20.10
  -3  10  -7   84.19   17.10
   3 -10   7   97.09   23.30
  -4  10  -7    0.30   12.60
  -4  10  -7   -8.70   11.50
   4 -10   7   -5.80   17.00
  -5  10  -7  134.99   21.00
  -5  10  -7   86.19   19.20
   5 -10   7  109.09   24.10
  -6  10  -7  147.99   24.30
  -7  10  -7   25.00   18.10
  -8  10  -7    1.70   17.20
   5   9  -7   24.30   20.60
  -5  -9   7   30.40   20.00
  -5  -9   7    7.50   16.70
   4   9  -7    3.30   16.70
  -4  -9   7  -17.90   13.30
  -4  -9   7   -9.40   16.90
   3   9  -7  153.18   26.30
  -3  -9   7  137.39   26.50
  -3  -9   7  176.98   25.40
  -3  -9   7  155.38   26.40
   2   9  -7   97.39   23.10
  -2  -9   7  116.59   20.70
  -2  -9   7  131.49   23.90
  -2  -9   7   80.49   22.00
   1   9  -7   16.60   14.30
  -1  -9   7   29.10   14.20
  -1  -9   7   10.70   14.30
  -1  -9   7    0.20   16.80
   0   9  -7  336.27   32.00
   0  -9   7  281.37   29.50
   0  -9   7  328.67   33.20
  -1   9  -7  397.16   32.20
   1  -9   7  343.47   36.50
   1  -9   7  363.36   32.00
  -2   9  -7   65.49   14.60
  -2   9  -7   23.60   15.40
   2  -9   7   40.40   19.50
   2  -9   7   86.29   21.80
  -3   9  -7   50.89   15.70
  -3   9  -7   48.40   14.10
   3  -9   7   61.59   21.00
  -4   9  -7  142.29   22.40
  -4   9  -7  185.58   23.80
   4  -9   7  186.58   31.50
  -5   9  -7   -2.90   11.20
  -5   9  -7   22.00   13.30
  -6   9  -7   30.90   16.90
  -7   9  -7  115.99   23.10
  -8   9  -7   52.19   21.40
  -9   9  -7  -12.50   17.30
  -9   9  -7    6.30   17.80
  -6  -8   7   -7.70   19.10
  -6  -8   7   11.90   17.00
   5   8  -7  251.97   33.60
  -5  -8   7  237.78   34.80
  -5  -8   7  208.68   30.00
   4   8  -7  267.17   32.00
  -4  -8   7  226.08   32.50
  -4  -8   7  211.68   26.40
  -4  -8   7  228.28   31.20
   3   8  -7    5.60   15.40
  -3  -8   7    2.40   12.00
  -3  -8   7   -9.80   12.10
  -3  -8   7   -8.30   13.60
   2   8  -7  260.87   29.90
  -2  -8   7  248.88   27.00
  -2  -8   7  292.17   32.50
  -2  -8   7  276.77   27.70
   1   8  -7  247.28   28.20
  -1  -8   7  239.48   24.10
  -1  -8   7  305.37   27.10
  -1  -8   7  270.27   31.10
   0   8  -7   13.10   13.60
   0  -8   7    3.30   13.00
   0  -8   7   10.30   12.90
  -1   8  -7   94.99   16.40
  -1   8  -7   81.49   18.00
   1  -8   7  101.99   19.30
   1  -8   7   93.19   21.20
  -2   8  -7  359.76   28.80
  -2   8  -7  363.46   25.10
   2  -8   7  392.86   35.40
   2  -8   7  445.86   31.20
  -3   8  -7  149.39   21.90
  -3   8  -7  191.78   21.30
   3  -8   7  137.89   22.60
   3  -8   7  180.38   28.80
  -4   8  -7   36.20   13.40
  -4   8  -7   48.60   14.10
   4  -8   7   39.90   18.10
   4  -8   7   58.49   14.70
  -5   8  -7  287.07   23.20
  -5   8  -7  336.37   30.80
   5  -8   7  358.66   28.80
  -6   8  -7  143.29   23.70
   6  -8   7  160.98   24.90
  -7   8  -7   10.10   16.40
  -8   8  -7   95.19   23.90
  -8   8  -7   66.99   21.40
  -9   8  -7  112.19   28.70
  -9   8  -7  125.79   27.40
  -7  -7   7   99.89   25.20
  -7  -7   7  119.29   26.40
  -6  -7   7  160.68   29.40
  -6  -7   7   97.09   24.20
   5   7  -7   18.00   16.70
  -5  -7   7    5.80   13.40
  -5  -7   7   -8.50   16.00
  -5  -7   7    4.70   13.80
   4   7  -7  256.97   28.00
  -4  -7   7  268.77   32.30
  -4  -7   7  317.57   27.10
  -4  -7   7  274.17   30.40
   3   7  -7  381.76   31.80
  -3  -7   7  316.77   26.10
  -3  -7   7  257.87   30.50
  -3  -7   7  337.97   30.60
   2   7  -7   39.30   14.60
  -2  -7   7   38.30   17.60
  -2  -7   7   42.90   13.30
  -2  -7   7   41.90   14.90
   1   7  -7  193.68   24.70
  -1  -7   7  171.98   23.40
  -1  -7   7  154.88   25.60
   0   7  -7  290.17   26.20
   0   7  -7  279.97   18.50
   0  -7   7  274.67   29.50
   0  -7   7  257.07   26.40
  -1   7  -7  366.46   22.40
  -1   7  -7  393.56   27.40
   1  -7   7  391.96   30.20
   1  -7   7  354.46   32.00
  -2   7  -7   14.10   11.30
  -2   7  -7   -4.40    8.40
   2  -7   7    0.10   11.80
   2  -7   7  -11.80   14.20
  -3   7  -7  398.76   27.50
  -3   7  -7  365.06   25.20
   3  -7   7  376.96   28.80
   3  -7   7  339.87   32.30
  -4   7  -7  703.33   36.30
  -4   7  -7  740.33   32.20
   4  -7   7  717.93   37.20
   4  -7   7  632.44   41.20
  -5   7  -7    5.20   12.40
  -5   7  -7    1.20    8.70
   5  -7   7    9.80   12.90
  -6   7  -7  148.59   23.10
   6  -7   7  168.68   25.70
  -7   7  -7  213.38   29.30
  -7   7  -7  240.58   32.90
  -8   7  -7   18.70   18.20
  -8   7  -7   52.29   20.50
  -9   7  -7   80.89   21.40
  -9   7  -7   73.39   23.60
  -8  -6   7   73.89   21.90
  -8  -6   7   83.99   23.00
  -7  -6   7    5.30   17.00
  -7  -6   7   25.80   16.50
  -6  -6   7  196.78   30.10
  -6  -6   7  219.28   31.80
  -5  -6   7  545.65   38.40
  -5  -6   7  496.35   32.00
  -5  -6   7  451.55   36.10
   4   6  -7   39.80   16.10
  -4  -6   7   41.70   12.10
  -4  -6   7   40.50   16.40
  -4  -6   7   28.60   14.20
   3   6  -7   71.39   17.50
  -3  -6   7   80.59   14.10
  -3  -6   7   37.80   14.10
  -3  -6   7   37.90   14.00
   2   6  -7  300.87   26.50
  -2  -6   7  259.17   27.40
  -2  -6   7  269.07   21.50
  -2  -6   7  303.47   26.30
   1   6  -7   79.89   11.30
   1   6  -7   89.69   17.00
  -1  -6   7   77.39   17.00
  -1  -6   7   65.19   14.80
   0   6  -7   27.60    8.90
   0   6  -7   40.60   12.90
   0  -6   7   30.40   14.30
   0  -6   7   19.70   12.50
  -1   6  -7  355.06   21.70
  -1   6  -7  394.56   24.70
   1  -6   7  365.76   27.90
   1  -6   7  385.96   28.80
  -2   6  -7  132.19   17.10
  -2   6  -7  162.38   17.70
   2  -6   7  179.08   25.40
   2  -6   7  167.88   21.80
  -3   6  -7   -2.50    9.00
  -3   6  -7   -5.90    9.00
   3  -6   7   -0.50   12.00
   3  -6   7   -9.90   12.40
  -4   6  -7  624.14   33.70
  -4   6  -7  614.44   26.60
   4  -6   7  586.74   35.10
  -5   6  -7  618.64   36.30
   5  -6   7  637.94   36.30
  -6   6  -7  139.59   23.00
   6  -6   7  172.28   26.20
  -7   6  -7   76.39   20.80
  -7   6  -7   60.19   19.60
  -8   6  -7  385.86   35.60
  -8   6  -7  367.06   38.50
  -9   6  -7   44.20   21.00
  -9   6  -7   66.29   22.10
 -10   6  -7    6.60   20.20
 -10   6  -7    8.90   17.90
  -9  -5   7    3.00   15.60
  -9  -5   7   16.50   18.50
  -8  -5   7   74.59   22.00
  -8  -5   7   19.00   17.70
  -7  -5   7  322.97   35.20
  -7  -5   7  321.67   34.20
  -6  -5   7   88.09   20.10
  -6  -5   7  123.59   21.30
  -6  -5   7  195.08   27.70
  -5  -5   7   47.00   12.90
  -5  -5   7   36.60   15.60
  -5  -5   7   37.40   16.60
  -4  -5   7  347.47   29.10
  -4  -5   7  308.77   28.80
  -4  -5   7  313.87   22.70
   3   5  -7  184.08   22.70
  -3  -5   7  157.18   16.40
  -3  -5   7  109.49   19.20
  -3  -5   7  150.48   22.00
   2   5  -7  256.17   13.00
   2   5  -7  255.77   23.40
  -2  -5   7  280.07   24.50
  -2  -5   7  260.27   23.60
  -2  -5   7  248.28   18.50
   1   5  -7  888.51   37.10
   1   5  -7  913.11   28.30
  -1  -5   7  919.91   39.10
  -1  -5   7  928.21   38.60
   0   5  -7 1092.59   39.40
   0   5  -7 1068.59   33.60
   0  -5   7 1057.59   43.40
   0  -5   7 1072.69   42.50
  -1   5  -7   11.40    8.60
  -1   5  -7    6.20    9.20
   1  -5   7   -7.00   10.70
   1  -5   7  -10.00   11.10
  -2   5  -7  206.18   19.00
  -2   5  -7  161.68   16.30
   2  -5   7  187.18   23.40
   2  -5   7  218.28   23.90
  -3   5  -7  612.84   24.70
  -3   5  -7  579.74   30.50
   3  -5   7  546.35   31.80
   3  -5   7  576.74   34.90
  -4   5  -7  155.08   21.30
  -4   5  -7  167.28   14.00
   4  -5   7  158.18   23.00
  -5   5  -7  245.48   25.60
  -5   5  -7  190.68   26.00
   5  -5   7  142.29   23.70
  -6   5  -7  784.32   44.80
  -6   5  -7  860.61   43.10
   6  -5   7  850.41   43.60
  -7   5  -7  209.38   30.90
  -7   5  -7  240.68   29.20
  -8   5  -7   13.90   15.40
  -8   5  -7   16.50   16.60
  -9   5  -7  126.49   24.30
  -9   5  -7  175.18   31.30
 -10   5  -7  109.49   25.10
 -10   5  -7  107.59   27.70
  -9  -4   7  292.37   35.30
  -9  -4   7  197.88   33.90
  -8  -4   7  101.79   22.80
  -8  -4   7   87.69   22.40
  -7  -4   7   68.29   19.80
  -7  -4   7   57.29   18.50
  -6  -4   7  434.16   32.20
  -6  -4   7  470.05   27.30
  -6  -4   7  451.55   35.10
  -5  -4   7  622.84   36.20
  -5  -4   7  594.14   28.40
  -5  -4   7  597.74   37.20
   4   4  -7   16.10    7.70
  -4  -4   7   15.00   11.50
  -4  -4   7   15.80   10.70
  -4  -4   7   14.90    8.40
   3   4  -7  940.81   33.90
  -3  -4   7 1030.50   42.90
  -3  -4   7  996.90   31.60
  -3  -4   7 1037.60   41.40
   2   4  -7 1389.66   35.10
   2   4  -7 1457.65   48.00
  -2  -4   7 1415.16   38.90
  -2  -4   7 1466.85   49.99
  -2  -4   7 1349.66   46.90
   1   4  -7   51.19    8.70
   1   4  -7   70.79   12.90
  -1  -4   7   57.99   14.10
  -1  -4   7   32.70   11.50
   0   4  -7  455.65   24.10
   0   4  -7  412.96   20.50
   0  -4   7  438.76   27.10
   0  -4   7  481.05   28.80
  -1   4  -7  853.61   31.30
  -1   4  -7  860.11   31.20
   1  -4   7  903.31   37.90
   1  -4   7  851.91   38.00
  -2   4  -7  142.89   16.80
  -2   4  -7  154.48   14.00
   2  -4   7  152.08   21.20
   2  -4   7  162.28   21.30
  -3   4  -7  105.29   17.50
  -3   4  -7  103.59   11.70
   3  -4   7  129.19   20.30
  -4   4  -7  585.04   19.70
  -4   4  -7  602.94   32.50
  -4   4  -7  605.14   33.40
   4  -4   7  603.84   34.00
  -5   4  -7  360.66   28.10
  -5   4  -7  349.96   29.60
   5  -4   7  323.57   29.70
  -6   4  -7   -0.30   12.90
  -6   4  -7    8.80   12.50
  -7   4  -7  373.06   35.00
  -7   4  -7  364.46   32.30
  -8   4  -7  202.78   30.20
  -8   4  -7  177.78   29.20
  -9   4  -7   21.60   19.50
  -9   4  -7   -3.50   15.60
 -10   4  -7   53.79   23.60
 -10   4  -7   52.89   22.00
 -10  -3   7   83.89   23.40
 -10  -3   7  113.09   27.30
  -9  -3   7   -3.10   15.30
  -9  -3   7    0.80   15.90
  -8  -3   7  295.17   31.80
  -8  -3   7  272.67   33.30
  -7  -3   7  334.17   33.00
  -7  -3   7  340.27   30.70
  -7  -3   7  377.76   26.40
  -6  -3   7   39.40   11.10
  -6  -3   7   13.90   13.70
  -6  -3   7   42.60   15.60
   5   3  -7  149.69   14.40
  -5  -3   7  181.98   21.90
  -5  -3   7  119.39   14.40
  -5  -3   7  117.69   21.50
   4   3  -7  720.63   27.60
  -4  -3   7  727.73   25.20
  -4  -3   7  687.13   34.80
  -4  -3   7  743.83   34.30
   3   3  -7  222.78   17.40
   3   3  -7  207.58    9.00
  -3  -3   7  197.88    8.70
  -3  -3   7  202.48   21.80
  -3  -3   7  208.48   12.60
  -3  -3   7  217.48   20.20
   2   3  -7  474.65   18.40
  -2  -3   7  512.45   28.80
  -2  -3   7  486.05   26.10
   1   3  -7 1226.98   35.40
  -1  -3   7 1309.27   44.80
  -1  -3   7 1146.79   40.50
   0   3  -7  625.84   25.20
   0  -3   7  682.03   33.30
   0  -3   7  630.54   29.40
  -1   3  -7  103.99   14.70
   1  -3   7  121.39   21.10
   1  -3   7  121.69   17.80
  -2   3  -7 1865.81   53.49
   2  -3   7 1772.52   56.99
   2  -3   7 1783.82   55.69
  -3   3  -7 1314.17   46.20
  -3   3  -7 1364.76   46.30
   3  -3   7 1311.37   48.80
  -4   3  -7    8.70   10.80
  -4   3  -7   11.50   10.10
   4  -3   7   -5.80   10.80
  -5   3  -7  377.16   30.30
  -5   3  -7  369.06   27.40
   5  -3   7  379.26   30.30
  -6   3  -7  267.47   27.90
  -6   3  -7  291.57   29.90
  -7   3  -7  -11.20   14.50
  -7   3  -7  -10.50   12.80
  -8   3  -7  124.79   23.20
  -8   3  -7  165.08   29.10
  -9   3  -7  198.08   32.50
  -9   3  -7  147.39   28.40
 -10   3  -7   10.10   19.50
 -10   3  -7   14.30   20.20
 -10  -2   7  238.58   32.60
 -10  -2   7  211.58   35.00
  -9  -2   7  162.38   28.10
  -9  -2   7  163.88   27.80
  -8  -2   7    8.00   13.40
  -8  -2   7   15.00   15.00
  -7  -2   7  366.86   32.30
  -7  -2   7  426.66   30.50
  -7  -2   7  351.66   23.50
   6   2  -7  574.64   24.90
  -6  -2   7  519.75   24.40
  -6  -2   7  439.26   29.40
  -6  -2   7  508.75   34.00
   5   2  -7  126.99   14.90
  -5  -2   7  129.69   20.60
  -5  -2   7  129.29   18.50
  -5  -2   7  126.79   12.60
   4   2  -7  189.38   16.40
  -4  -2   7  140.49   17.10
  -4  -2   7  178.48   11.60
  -4  -2   7  214.48   22.00
  -4  -2   7  184.88   10.10
   3   2  -7 1266.57   40.50
   3   2  -7 1292.97   31.70
   3   2  -7 1310.27   30.20
  -3  -2   7 1273.07   45.60
  -3  -2   7 1239.98   40.80
  -3  -2   7 1330.67   29.90
   2   2  -7  792.82   19.40
   2   2  -7  754.82   24.80
  -2  -2   7  768.22   30.10
  -2  -2   7  777.92   34.00
   1   2  -7    6.70    7.70
   1   2  -7    3.00    4.60
  -1  -2   7    0.40    9.00
  -1  -2   7    8.80    8.80
   0   2  -7  912.91   32.30
   0   2  -7  940.81   28.10
   0  -2   7  900.51   33.80
   0  -2   7  975.30   38.20
  -1   2  -7 1046.80   36.90
  -1   2  -7 1091.49   34.20
   1  -2   7 1119.69   42.60
   1  -2   7 1091.99   37.60
  -2   2  -7   14.00   10.60
  -2   2  -7    9.00    8.30
   2  -2   7   15.50   11.70
  -3   2  -7  980.90   39.50
  -3   2  -7 1013.40   38.80
   3  -2   7  960.30   22.70
   3  -2   7  988.60   41.50
  -4   2  -7 1014.10   43.10
  -4   2  -7  994.30   41.00
   4  -2   7 1064.39   45.00
  -5   2  -7   82.49   17.80
  -5   2  -7   39.20   15.30
   5  -2   7   38.40   13.90
  -6   2  -7  101.29   20.70
  -6   2  -7   86.29   17.60
  -7   2  -7  234.58   29.70
  -7   2  -7  308.07   33.20
  -8   2  -7  134.09   28.20
  -8   2  -7   72.89   20.60
  -9   2  -7    6.70   18.90
  -9   2  -7   30.70   18.90
 -10   2  -7  165.98   29.80
 -10   2  -7  130.39   28.20
 -10   2  -7  127.19   30.50
 -11  -1   7  257.47   31.60
 -11  -1   7  184.38   31.30
 -10  -1   7  -13.50   14.30
 -10  -1   7   40.70   16.10
  -9  -1   7  334.57   30.70
  -9  -1   7  274.67   32.70
  -8  -1   7  449.46   29.70
  -8  -1   7  504.25   37.20
  -8  -1   7  463.15   31.90
   7   1  -7  117.49   16.50
  -7  -1   7  146.49   16.70
  -7  -1   7  152.68   22.50
  -7  -1   7  195.38   21.70
   6   1  -7   79.29   13.30
  -6  -1   7   66.99   10.60
  -6  -1   7   70.69   15.80
  -6  -1   7   74.19    8.80
  -6  -1   7   53.89   12.60
   5   1  -7  469.55   23.90
  -5  -1   7  471.25   25.20
  -5  -1   7  524.85   30.60
  -5  -1   7  487.65   19.10
   4   1  -7  432.76   22.40
  -4  -1   7  436.36   14.20
  -4  -1   7  460.35   23.00
  -4  -1   7  423.96   26.90
   3   1  -7   -2.00    7.90
   3   1  -7   10.10    5.80
  -3  -1   7    2.40    7.10
  -3  -1   7   13.80   10.40
   2   1  -7  850.01   27.90
  -2  -1   7  834.72   28.70
  -2  -1   7  900.41   35.50
   1   1  -7 2114.79   55.09
   1   1  -7 2181.48   46.20
  -1  -1   7 2212.68   61.49
  -1  -1   7 2211.68   54.59
   0   1  -7  389.56   22.10
   0   1  -7  389.76   17.20
   0  -1   7  411.36   27.20
   0  -1   7  400.56   20.70
  -1   1  -7  848.72   33.50
  -1   1  -7  838.42   29.70
   1  -1   7  816.62   35.10
  -2   1  -7 1111.49   40.20
  -2   1  -7 1188.18   40.20
   2  -1   7 1152.38   42.70
  -3   1  -7   87.59   15.50
  -3   1  -7   85.09   14.90
   3  -1   7  105.39   17.50
  -4   1  -7  350.86   27.20
  -4   1  -7  355.86   27.30
   4  -1   7  369.56   26.70
  -5   1  -7  613.84   36.10
  -5   1  -7  597.94   36.60
  -6   1  -7  376.96   32.20
  -6   1  -7  369.26   31.80
  -7   1  -7  -12.20   12.60
  -7   1  -7    3.80   15.30
  -8   1  -7  174.98   30.00
  -8   1  -7  203.88   31.50
  -9   1  -7  212.08   36.60
  -9   1  -7  280.47   35.80
  -9   1  -7  279.97   38.50
 -11   0   7   29.20   19.40
 -11   0   7   97.99   21.20
 -10   0   7  306.87   32.00
 -10   0   7  331.07   35.20
  -9   0   7   62.49   16.40
  -9   0   7   49.99   17.40
   8   0  -7   75.59   14.30
  -8   0   7  118.89   19.70
  -8   0   7   46.90   15.50
  -8   0   7   78.89   14.10
   7   0  -7 1095.59   40.30
  -7   0   7 1049.89   47.10
  -7   0   7 1127.99   42.80
  -7   0   7 1091.09   33.40
  -7   0   7 1098.79   38.10
   6   0  -7  306.77   21.90
  -6   0   7  326.87   26.60
  -6   0   7  319.07   21.90
  -6   0   7  362.06   18.70
   5   0  -7  171.38   16.90
  -5   0   7  177.58   16.30
  -5   0   7  173.98   12.00
  -5   0   7  180.68   18.90
   4   0  -7 1595.74   47.70
  -4   0   7 1670.03   52.39
  -4   0   7 1632.34   44.90
  -4   0   7 1630.44   35.00
   3   0  -7  587.94   22.30
   3   0  -7  652.73   27.90
  -3   0   7  596.24   22.30
  -3   0   7  650.03   29.60
   2   0  -7  705.03   29.50
   2   0  -7  683.23   25.90
  -2   0   7  736.53   31.50
  -2   0   7  666.33   23.30
   1   0  -7   51.19   10.80
   1   0  -7   37.40    6.20
  -1   0   7   28.00    7.70
  -1   0   7   29.90   12.00
   0   0  -7 1985.50   54.69
   0   0  -7 1981.60   49.40
   0   0   7 1962.00   57.09
  -1   0  -7  295.47   19.00
  -1   0  -7  288.47   22.70
   1   0   7  268.27   21.70
   1   0   7  288.77   14.30
  -2   0  -7  159.28   18.20
  -2   0  -7  151.08   17.50
   2   0   7  154.48   20.40
   2   0   7  159.38    9.40
  -3   0  -7  553.94   30.40
  -3   0  -7  521.55   29.70
   3   0   7  531.45   31.60
  -4   0  -7  146.89   23.20
  -4   0  -7  152.58   22.20
   4   0   7  144.49   20.70
  -5   0  -7   45.10   16.40
  -5   0  -7   72.19   18.10
  -6   0  -7  461.65   35.50
  -6   0  -7  480.95   36.50
  -7   0  -7  385.96   35.40
  -7   0  -7  355.36   37.10
  -8   0  -7    7.20   18.90
  -8   0  -7   52.79   22.80
  -8   0  -7   67.59   21.40
  -9   0  -7  184.28   30.30
  -9   0  -7  182.18   31.30
  -9   0  -7  141.79   30.20
 -11   1   7  125.19   22.90
 -11   1   7  113.29   25.60
 -10   1   7  -15.40   12.40
 -10   1   7   13.40   12.40
   9  -1  -7  384.16   26.90
  -9   1   7  317.67   31.90
  -9   1   7  365.26   36.90
  -9   1   7  358.26   28.50
   8  -1  -7  697.53   34.50
  -8   1   7  705.23   34.80
  -8   1   7  721.83   29.00
  -8   1   7  758.02   41.00
  -8   1   7  757.42   33.40
   7  -1  -7    5.50    9.20
  -7   1   7   18.10    8.90
  -7   1   7    4.60    7.70
  -7   1   7    8.80   10.90
   6  -1  -7  402.66   24.70
  -6   1   7  411.16   19.70
  -6   1   7  394.26   22.10
  -6   1   7  365.26   27.30
   5  -1  -7 1367.16   45.00
  -5   1   7 1347.87   40.00
  -5   1   7 1351.46   46.70
  -5   1   7 1398.46   36.00
   4  -1  -7  128.59   16.40
  -4   1   7   92.69   15.70
  -4   1   7   99.49    7.90
  -4   1   7   86.39    7.70
  -4   1   7  108.19   11.20
   3  -1  -7  242.38   18.80
   3  -1  -7  237.18   16.00
  -3   1   7  257.27    9.50
  -3   1   7  276.07   13.50
  -3   1   7  234.68   19.50
   2  -1  -7 2367.06   50.39
   2  -1  -7 2390.96   63.39
   2  -1  -7 2315.37   59.99
  -2   1   7 2304.77   50.29
  -2   1   7 2356.76   63.39
  -2   1   7 2408.56   51.59
   1  -1  -7  564.34   26.50
   1  -1  -7  561.44   20.70
  -1   1   7  556.34   28.50
   0  -1  -7  391.76   19.70
   0  -1  -7  361.46   23.60
   0   1   7  370.36   24.80
   0   1   7  388.46   18.30
  -1  -1  -7  910.21   36.50
  -1  -1  -7  904.31   33.90
   1   1   7  944.01   37.50
   1   1   7  888.71   27.30
  -2  -1  -7  849.81   35.60
  -2  -1  -7  805.72   35.50
   2   1   7  814.52   23.70
   2   1   7  873.71   37.20
  -3  -1  -7   -1.60   10.70
  -3  -1  -7   -8.90   11.20
   3   1   7   -3.90    4.10
   3   1   7    9.10   11.20
  -4  -1  -7  268.17   26.50
  -4  -1  -7  227.28   26.90
  -5  -1  -7  727.33   42.50
  -5  -1  -7  833.12   41.70
  -6  -1  -7   16.00   15.80
  -6  -1  -7  -15.00   14.10
  -6  -1  -7    1.00   12.60
  -7  -1  -7   69.79   18.70
  -7  -1  -7   42.10   18.60
  -7  -1  -7   70.39   22.80
  -8  -1  -7  221.48   32.20
  -8  -1  -7  253.07   33.30
  -8  -1  -7  291.77   39.40
  -9  -1  -7   62.99   21.80
  -9  -1  -7   40.90   23.40
  -9  -1  -7   43.80   22.30
 -12   2   7  -12.90   16.10
 -12   2   7   -1.70   13.70
 -11   2   7  250.67   28.30
 -11   2   7  218.58   31.60
  10  -2  -7  168.78   24.60
 -10   2   7  257.37   26.50
 -10   2   7  209.18   28.40
   9  -2  -7   22.90   12.80
  -9   2   7   19.50   11.50
  -9   2   7   28.00   11.90
  -9   2   7   37.10   14.50
  -9   2   7   26.50   10.60
   8  -2  -7  252.57   24.20
  -8   2   7  294.47   23.50
  -8   2   7  302.37   27.20
  -8   2   7  272.77   22.30
   7  -2  -7  313.77   24.00
  -7   2   7  282.87   24.40
  -7   2   7  266.37   19.90
  -7   2   7  303.97   20.60
   6  -2  -7  273.87   22.80
  -6   2   7  282.77   22.20
  -6   2   7  313.27   18.60
  -6   2   7  324.07   18.40
   5  -2  -7   96.19   16.70
  -5   2   7   70.59   10.30
  -5   2   7   67.49   12.50
   4  -2  -7  809.52   33.60
  -4   2   7  895.31   34.00
  -4   2   7  904.31   24.80
   3  -2  -7  735.53   28.80
   3  -2  -7  804.92   32.60
  -3   2   7  750.42   30.60
  -3   2   7  800.62   19.40
   2  -2  -7  151.28   17.00
   2  -2  -7  144.49   17.40
   2  -2  -7  132.09   12.20
  -2   2   7  139.69   15.70
  -2   2   7  120.89   16.90
   1  -2  -7 1922.41   41.90
   1  -2  -7 1934.81   54.79
   1  -2  -7 1964.60   50.39
   1  -2  -7 1901.61   53.39
  -1   2   7 1854.71   50.39
  -1   2   7 1866.21   53.89
   0  -2  -7 1297.87   42.80
   0  -2  -7 1338.87   41.10
   0   2   7 1300.27   38.00
   0   2   7 1266.27   43.00
  -1  -2  -7   29.90   11.20
  -1  -2  -7   44.00   13.20
   1   2   7   37.20    8.10
   1   2   7   58.09   12.90
  -2  -2  -7  858.51   38.10
  -2  -2  -7  892.31   37.50
   2   2   7  919.91   38.60
   2   2   7  875.41   27.20
  -3  -2  -7  647.04   34.90
  -3  -2  -7  635.94   29.90
  -3  -2  -7  605.54   34.10
   3   2   7  672.93   22.00
  -4  -2  -7   35.00   15.10
  -4  -2  -7   51.49   13.70
  -4  -2  -7   88.19   19.70
  -5  -2  -7  145.09   22.40
  -5  -2  -7  125.29   22.80
  -5  -2  -7  136.79   21.80
  -6  -2  -7  286.87   30.40
  -6  -2  -7  290.57   29.20
  -6  -2  -7  336.57   36.40
  -7  -2  -7   55.29   20.10
  -7  -2  -7   74.59   19.10
  -7  -2  -7  126.19   27.70
  -8  -2  -7  -14.10   16.20
  -8  -2  -7   -8.50   15.20
  -8  -2  -7    2.60   20.10
 -12   3   7  125.99   23.70
 -12   3   7  137.39   26.10
 -12   3   7  122.39   24.00
  11  -3  -7   13.40   14.20
 -11   3   7  -18.00   13.80
 -11   3   7    6.10   12.20
 -11   3   7    8.40   14.30
  10  -3  -7  152.78   23.00
 -10   3   7  127.89   20.90
 -10   3   7  139.99   22.30
 -10   3   7  203.48   25.80
 -10   3   7  139.09   23.90
   9  -3  -7  336.37   28.50
  -9   3   7  302.17   28.60
  -9   3   7  362.76   26.60
  -9   3   7  350.96   25.10
  -9   3   7  312.67   24.90
  -9   3   7  316.17   29.00
   8  -3  -7  248.28   25.30
  -8   3   7  225.68   25.80
  -8   3   7  290.47   23.20
  -8   3   7  229.18   20.30
  -8   3   7  298.97   25.20
   7  -3  -7   -2.40   10.20
  -7   3   7   12.20    9.00
  -7   3   7   12.80    9.20
  -7   3   7   16.50   12.10
  -7   3   7    1.50    7.50
   6  -3  -7  604.34   31.70
  -6   3   7  601.94   23.80
  -6   3   7  597.94   29.20
  -6   3   7  586.84   33.00
   5  -3  -7  940.61   38.40
  -5   3   7  954.60   35.40
  -5   3   7  969.20   27.40
  -5   3   7  991.70   40.20
   4  -3  -7   20.40   11.40
  -4   3   7   21.10    8.60
  -4   3   7   23.10    4.10
  -4   3   7    5.00   10.10
   3  -3  -7 1110.19   39.80
   3  -3  -7 1152.78   38.90
   3  -3  -7 1179.28   34.70
  -3   3   7 1133.79   40.00
  -3   3   7 1124.39   38.30
   2  -3  -7  679.63   30.20
   2  -3  -7  734.23   27.90
   2  -3  -7  787.32   30.90
  -2   3   7  746.63   30.70
  -2   3   7  764.12   30.50
   1  -3  -7  -10.30    7.60
   1  -3  -7   15.70    4.00
   1  -3  -7   11.60    4.00
   1  -3  -7    1.50    9.50
   1  -3  -7    7.20    9.70
  -1   3   7   10.80    8.80
  -1   3   7   11.60    8.60
   0  -3  -7  668.33   22.00
   0  -3  -7  685.03   30.20
   0  -3  -7  680.93   30.90
   0  -3  -7  694.73   31.90
   0   3   7  662.03   26.80
   0   3   7  669.13   29.40
  -1  -3  -7 1129.09   42.40
  -1  -3  -7 1041.60   42.10
  -1  -3  -7 1078.59   33.60
   1   3   7 1143.29   34.90
   1   3   7 1096.09   41.10
  -2  -3  -7  150.68   16.40
  -2  -3  -7  143.59   21.20
  -2  -3  -7  143.19   21.90
   2   3   7  123.69   13.70
  -3  -3  -7  587.54   35.50
  -3  -3  -7  622.74   30.60
  -3  -3  -7  640.74   33.70
   3   3   7  644.24   24.70
  -4  -3  -7  857.11   42.10
  -4  -3  -7  900.71   39.80
  -4  -3  -7  908.21   47.50
  -5  -3  -7  262.87   28.10
  -5  -3  -7  302.17   34.60
  -5  -3  -7  257.27   27.70
  -6  -3  -7   18.30   17.60
  -6  -3  -7   14.60   14.60
  -6  -3  -7    5.80   13.70
  -7  -3  -7  117.59   22.80
  -7  -3  -7  166.88   28.80
  -7  -3  -7  179.78   32.50
  -8  -3  -7  190.28   32.40
  -8  -3  -7  158.88   32.70
  -8  -3  -7  211.58   32.20
  12  -4  -7   51.09   19.40
 -12   4   7   80.19   20.70
 -12   4   7   67.49   19.00
  11  -4  -7  207.28   27.30
 -11   4   7  179.08   27.10
 -11   4   7  148.39   33.00
 -11   4   7  152.58   25.90
  10  -4  -7   27.00   16.10
 -10   4   7   35.10   16.10
 -10   4   7   40.60   14.90
 -10   4   7   52.89   15.70
 -10   4   7   31.10   12.90
 -10   4   7   25.10   12.00
   9  -4  -7    7.80   13.50
  -9   4   7    9.70   12.20
  -9   4   7   24.40   12.20
  -9   4   7   32.60   15.00
  -9   4   7   15.30   10.30
   8  -4  -7  494.75   32.40
  -8   4   7  423.16   24.70
  -8   4   7  458.25   32.30
  -8   4   7  458.05   28.90
   7  -4  -7  628.84   34.40
  -7   4   7  614.94   30.50
  -7   4   7  616.04   25.80
  -7   4   7  614.24   33.70
   6  -4  -7   48.60   13.40
  -6   4   7   44.30   10.90
  -6   4   7   30.50   13.50
  -6   4   7   58.09    9.90
   5  -4  -7  822.22   36.30
  -5   4   7  886.91   37.10
  -5   4   7  838.42   22.70
  -5   4   7  826.32   31.70
   4  -4  -7  876.31   36.50
  -4   4   7  890.21   37.00
  -4   4   7  937.91   33.00
   3  -4  -7   84.69   14.30
   3  -4  -7  111.59   16.90
  -3   4   7   95.19   14.70
  -3   4   7   88.99   14.30
   2  -4  -7  479.15   25.70
   2  -4  -7  432.16   24.70
   2  -4  -7  472.85   25.40
  -2   4   7  465.85   23.20
  -2   4   7  455.25   25.50
   1  -4  -7  952.70   23.30
   1  -4  -7  885.51   34.90
   1  -4  -7  901.01   36.00
   1  -4  -7  912.61   36.40
  -1   4   7  945.01   34.80
  -1   4   7  849.32   32.60
   0  -4  -7  143.89   18.20
   0  -4  -7  149.39   20.00
   0  -4  -7  162.98   12.00
   0  -4  -7  175.98   18.30
   0   4   7  141.49   17.20
   0   4   7  148.49   16.50
  -1  -4  -7   45.30   11.90
  -1  -4  -7   37.70    9.00
  -1  -4  -7   40.20   14.20
  -1  -4  -7   44.60   13.80
   1   4   7   33.00   10.30
  -2  -4  -7  740.43   32.00
  -2  -4  -7  657.43   29.70
  -2  -4  -7  695.73   38.60
  -2  -4  -7  716.23   35.70
   2   4   7  686.63   28.70
  -3  -4  -7  534.25   33.70
  -3  -4  -7  562.74   38.00
  -3  -4  -7  536.15   29.70
  -3  -4  -7  584.54   30.10
   3   4   7  567.84   26.10
  -4  -4  -7    3.80   11.70
  -4  -4  -7   35.10   15.30
  -4  -4  -7   28.30   17.20
  -5  -4  -7  212.48   26.50
  -5  -4  -7  168.88   30.70
  -5  -4  -7  240.18   26.80
  -6  -4  -7  163.08   24.10
  -6  -4  -7  164.08   29.80
  -6  -4  -7  194.18   28.80
  -7  -4  -7   10.60   16.50
  -7  -4  -7   10.00   19.60
  -7  -4  -7    8.00   16.20
  12  -5  -7  103.29   24.80
 -12   5   7  127.39   23.50
  11  -5  -7    5.20   15.30
 -11   5   7   23.80   15.50
 -11   5   7   13.30   12.40
  10  -5  -7  183.68   27.30
 -10   5   7  204.28   26.80
 -10   5   7  215.48   27.40
 -10   5   7  188.98   23.50
 -10   5   7  185.48   23.00
   9  -5  -7  240.68   28.20
  -9   5   7  240.88   27.30
  -9   5   7  224.08   23.50
   8  -5  -7  -11.30   11.20
  -8   5   7   23.10   14.20
  -8   5   7    1.40    8.70
  -8   5   7   15.30    9.00
   7  -5  -7  374.06   29.30
  -7   5   7  460.45   25.40
  -7   5   7  396.66   19.80
  -7   5   7  388.16   30.10
   6  -5  -7 1115.59   45.20
  -6   5   7 1038.20   36.30
  -6   5   7 1021.50   43.40
  -6   5   7 1037.20   29.60
   5  -5  -7   25.40   12.20
  -5   5   7   41.30    9.50
  -5   5   7   54.89   14.40
  -5   5   7   38.60    5.90
   4  -5  -7  342.67   23.80
   4  -5  -7  338.57   22.80
  -4   5   7  343.37   20.00
  -4   5   7  340.07   25.70
   3  -5  -7  572.24   30.40
   3  -5  -7  620.04   30.20
  -3   5   7  598.14   24.40
  -3   5   7  622.84   31.90
   2  -5  -7  326.17   24.80
   2  -5  -7  349.67   23.30
   2  -5  -7  319.47   24.30
  -2   5   7  378.56   24.70
  -2   5   7  369.96   19.70
   1  -5  -7   -4.20    8.80
   1  -5  -7    3.50   10.50
   1  -5  -7   -6.10    9.80
   1  -5  -7   -2.00    5.00
  -1   5   7    4.80    7.50
  -1   5   7   14.40   10.10
   0  -5  -7  190.38   23.40
   0  -5  -7  207.28   20.00
   0  -5  -7  256.87   22.20
   0  -5  -7  211.18   15.00
   0   5   7  227.58   19.70
  -1  -5  -7  204.58   23.80
  -1  -5  -7  261.97   27.60
  -1  -5  -7  227.88   18.10
  -1  -5  -7  233.98   20.10
   1   5   7  212.38   20.10
  -2  -5  -7    3.40    9.20
  -2  -5  -7  -17.10   10.80
  -2  -5  -7  -32.50   12.20
  -2  -5  -7    4.80    9.70
   2   5   7   -1.80    9.20
  -3  -5  -7  227.48   25.40
  -3  -5  -7  257.87   22.60
  -3  -5  -7  242.18   31.30
  -3  -5  -7  244.08   20.00
   3   5   7  199.48   20.50
  -4  -5  -7  250.37   28.30
  -4  -5  -7  208.18   32.10
  -4  -5  -7  248.08   26.50
  -5  -5  -7   25.80   16.10
  -5  -5  -7   13.20   13.60
  -5  -5  -7   30.30   20.10
  -6  -5  -7  102.49   21.70
  -6  -5  -7   95.29   20.50
  -6  -5  -7   83.19   26.30
  -7  -5  -7  232.18   31.70
  -7  -5  -7  161.28   33.10
  12  -6  -7  133.29   26.60
 -12   6   7  108.79   21.40
 -12   6   7  158.28   27.30
  11  -6  -7  177.58   29.30
 -11   6   7  129.29   23.50
 -11   6   7  174.98   23.10
  10  -6  -7   18.90   16.20
 -10   6   7   26.90   15.20
   9  -6  -7  138.89   24.50
  -9   6   7   93.39   19.30
   8  -6  -7  361.66   31.40
  -8   6   7  389.56   31.40
   7  -6  -7   46.40   16.00
  -7   6   7   45.50   15.60
  -7   6   7   43.70   11.20
   6  -6  -7  258.97   26.00
  -6   6   7  259.67   18.40
  -6   6   7  282.07   26.70
   5  -6  -7  571.34   32.40
  -5   6   7  652.83   35.20
  -5   6   7  587.04   24.60
   4  -6  -7   32.30   12.70
   4  -6  -7    7.00   12.00
  -4   6   7   49.60   13.40
  -4   6   7   44.30    8.80
   3  -6  -7   67.99   15.30
   3  -6  -7   40.80   13.00
  -3   6   7   42.80   13.80
  -3   6   7   67.69   11.40
   2  -6  -7  638.54   31.70
   2  -6  -7  682.63   36.40
  -2   6   7  661.43   25.20
  -2   6   7  631.84   33.10
   1  -6  -7  593.84   22.50
   1  -6  -7  513.15   34.10
   1  -6  -7  618.54   33.00
   1  -6  -7  551.94   29.20
  -1   6   7  656.73   32.70
   0  -6  -7   12.20   10.20
   0  -6  -7   23.70   14.40
   0  -6  -7   26.90   13.30
   0  -6  -7   12.90    8.10
   0   6   7   15.30   11.20
  -1  -6  -7  194.68   18.70
  -1  -6  -7  163.78   27.50
  -1  -6  -7  187.68   24.20
  -1  -6  -7  222.68   19.70
   1   6   7  210.98   22.30
  -2  -6  -7  269.37   27.60
  -2  -6  -7  289.27   24.00
  -2  -6  -7  274.27   21.30
  -2  -6  -7  266.37   32.20
   2   6   7  292.07   24.60
  -3  -6  -7   93.89   21.50
  -3  -6  -7   79.19   18.20
  -3  -6  -7   98.49   17.90
   3   6   7  111.89   19.80
  -4  -6  -7   34.30   15.30
  -4  -6  -7   54.09   16.50
  -4  -6  -7   14.10   19.50
  -5  -6  -7  260.27   37.90
  -5  -6  -7  328.97   30.60
  -5  -6  -7  261.77   30.90
  -6  -6  -7   43.30   23.50
  -6  -6  -7   94.79   21.20
  11  -7  -7   67.99   21.10
 -11   7   7   63.19   19.40
 -11   7   7   36.90   16.10
  10  -7  -7  331.27   34.70
 -10   7   7  291.67   31.40
   9  -7  -7  124.19   23.50
  -9   7   7   68.19   18.60
   8  -7  -7   67.19   18.40
  -8   7   7   58.29   17.50
   7  -7  -7  333.27   30.90
  -7   7   7  389.56   31.60
   6  -7  -7  229.38   26.50
  -6   7   7  247.88   27.00
   5  -7  -7   12.70   12.70
  -5   7   7   23.10   13.80
   4  -7  -7  511.55   31.80
   4  -7  -7  502.55   33.20
  -4   7   7  533.25   33.40
   3  -7  -7  904.71   44.50
   3  -7  -7  978.90   41.50
  -3   7   7  879.61   40.50
   2  -7  -7    6.70   14.10
   2  -7  -7   10.70   10.90
  -2   7   7   -3.70   10.60
   1  -7  -7  149.79   26.50
   1  -7  -7  159.28   19.70
  -1   7   7  144.09   21.40
   0  -7  -7  307.67   22.50
   0  -7  -7  297.97   27.50
   0  -7  -7  311.17   32.00
   0   7   7  256.17   26.30
  -1  -7  -7   24.30   17.00
  -1  -7  -7   19.70   11.20
  -1  -7  -7   29.20   14.20
   1   7   7   14.60   11.80
  -2  -7  -7   35.40   14.20
  -2  -7  -7    6.60   17.10
  -2  -7  -7   14.10   18.00
   2   7   7   15.20   13.20
  -3  -7  -7  196.28   30.40
  -3  -7  -7  187.88   26.80
  -3  -7  -7  193.78   34.00
  -4  -7  -7  107.59   20.50
  -4  -7  -7   92.59   28.90
  -4  -7  -7   88.79   26.40
  -5  -7  -7   -7.50   18.00
  11  -8  -7   46.00   20.90
 -11   8   7   50.19   19.40
 -11   8   7   30.80   15.50
  10  -8  -7   32.60   18.50
 -10   8   7   65.99   20.20
   9  -8  -7  240.78   31.60
  -9   8   7  297.17   32.30
   8  -8  -7  212.78   29.30
  -8   8   7  204.68   28.30
   7  -8  -7   18.50   15.90
  -7   8   7   10.70   14.50
   6  -8  -7  165.18   25.60
  -6   8   7   99.59   19.40
   5  -8  -7  227.18   26.50
  -5   8   7  254.57   27.40
   4  -8  -7  127.09   21.60
   4  -8  -7   85.09   17.90
  -4   8   7   86.69   18.60
   3  -8  -7  164.78   27.10
   3  -8  -7  237.88   23.40
  -3   8   7  174.28   24.20
   2  -8  -7  289.87   25.20
   2  -8  -7  210.78   29.40
  -2   8   7  234.08   26.80
   1  -8  -7  127.19   23.20
   1  -8  -7  132.89   19.20
  -1   8   7  119.79   20.30
   0  -8  -7  104.19   24.60
   0  -8  -7  120.59   24.90
   0   8   7   85.29   18.20
  -1  -8  -7  334.87   36.50
  -1  -8  -7  358.16   30.30
   1   8   7  361.86   31.70
  -2  -8  -7  252.37   36.40
  -2  -8  -7  231.08   26.70
   2   8   7  195.88   27.30
  -3  -8  -7   -2.50   17.00
  -3  -8  -7  -17.40   11.60
  -4  -8  -7   86.69   28.50
  10  -9  -7   65.29   21.40
 -10   9   7   46.80   19.40
   9  -9  -7   30.10   18.80
  -9   9   7   -7.70   13.90
   8  -9  -7  126.49   24.00
  -8   9   7   91.09   21.30
   7  -9  -7  303.57   32.50
  -7   9   7  296.77   32.00
   6  -9  -7    0.50   14.30
  -6   9   7   26.70   15.70
   5  -9  -7   67.59   18.50
  -5   9   7  100.69   21.80
   4  -9  -7  252.67   31.80
   4  -9  -7  303.87   27.10
  -4   9   7  248.88   27.30
   3  -9  -7  137.79   22.80
   3  -9  -7  133.89   24.80
  -3   9   7  149.69   24.30
   2  -9  -7   13.40   16.60
   2  -9  -7    0.70   11.30
  -2   9   7    7.40   14.90
   1  -9  -7  141.59   25.70
  -1   9   7   91.09   19.20
   0  -9  -7  103.89   25.10
   0   9   7  181.28   26.60
  -1  -9  -7   -2.70   18.10
   1   9   7   25.60   16.20
  -2  -9  -7  128.59   27.80
   2   9   7   76.59   20.20
  -3  -9  -7  109.29   29.40
  10 -10  -7   42.40   19.80
 -10  10   7   36.40   20.50
   9 -10  -7  139.99   27.50
  -9  10   7   89.79   22.50
   8 -10  -7   30.80   17.50
  -8  10   7   34.10   18.40
   7 -10  -7   17.90   16.30
  -7  10   7   27.40   16.10
   6 -10  -7  137.09   23.80
  -6  10   7  119.39   22.60
   5 -10  -7   51.79   18.00
  -5  10   7   39.20   16.70
   4 -10  -7   -7.90   12.40
   4 -10  -7   -9.90   16.10
  -4  10   7    1.80   15.00
   3 -10  -7  134.29   26.30
   3 -10  -7   99.49   18.80
  -3  10   7  102.39   22.60
   2 -10  -7  145.99   27.40
  -2  10   7  140.39   25.10
   1 -10  -7  -17.80   17.60
  -1  10   7   14.60   15.90
   0 -10  -7  163.88   30.10
   0  10   7  103.79   23.50
  -1 -10  -7   84.19   26.10
   1  10   7   72.79   22.10
  -2 -10  -7  -28.90   18.80
   9 -11  -7   10.00   16.40
  -9  11   7  -10.90   16.70
   8 -11  -7   30.80   19.60
  -8  11   7   22.50   17.80
   7 -11  -7   10.50   17.40
  -7  11   7    8.60   17.70
   6 -11  -7   29.10   16.60
  -6  11   7   31.80   18.30
   5 -11  -7  116.99   22.00
  -5  11   7  135.69   26.10
   4 -11  -7   91.59   18.90
   4 -11  -7   93.99   24.50
  -4  11   7  128.39   26.50
   3 -11  -7    8.70   16.70
  -3  11   7   -7.90   15.40
   2 -11  -7   65.09   24.90
  -2  11   7   43.50   20.10
   1 -11  -7  147.89   30.60
  -1  11   7  135.29   26.40
   0 -11  -7   33.40   23.20
   0  11   7    1.30   17.50
   7 -12  -7   82.69   21.70
  -7  12   7   28.80   21.00
   6 -12  -7   55.49   19.70
  -6  12   7   59.99   20.60
   5 -12  -7   41.70   17.50
  -5  12   7   -1.70   17.20
   4 -12  -7   40.50   23.20
  -4  12   7   35.50   19.60
   3 -12  -7  102.49   27.20
  -3  12   7   48.10   21.30
   2 -12  -7   33.20   22.30
  -2  12   7   28.60   19.60
   0  12  -8   25.50   19.10
   0 -12   8   12.00   23.70
  -1  12  -8   60.59   22.10
   1 -12   8   34.00   24.10
  -2  12  -8   15.40   17.80
   2 -12   8   27.10   21.10
  -3  12  -8   39.50   20.00
   3 -12   8   22.80   20.50
  -4  12  -8   91.99   22.90
   4 -12   8   72.09   25.10
   5 -12   8   46.50   22.10
   2  11  -8   39.20   18.60
  -2 -11   8   27.80   22.70
   1  11  -8  104.39   25.00
  -1 -11   8   79.89   25.30
   0  11  -8   -6.70   16.40
   0 -11   8    0.60   20.20
  -1  11  -8   78.79   22.70
   1 -11   8   42.60   22.10
  -2  11  -8  128.29   25.20
   2 -11   8  106.69   25.90
  -3  11  -8    5.10   15.80
   3 -11   8   30.20   21.20
  -4  11  -8  -31.00   11.40
  -4  11  -8  -22.70   13.60
   4 -11   8   10.10   18.80
  -5  11  -8   69.49   19.30
   5 -11   8   94.59   25.30
  -6  11  -8   76.59   21.20
   4  10  -8   54.29   21.80
  -4 -10   8   12.80   20.80
   3  10  -8  105.39   24.40
  -3 -10   8  127.29   29.20
   2  10  -8   32.10   19.10
  -2 -10   8   20.10   20.10
   1  10  -8   57.29   20.00
  -1 -10   8   44.80   19.80
   0  10  -8  301.67   33.20
   0 -10   8  225.08   33.30
  -1  10  -8   51.09   19.40
   1 -10   8   41.20   20.10
  -2  10  -8   53.59   18.60
   2 -10   8   81.39   23.30
  -3  10  -8  149.59   23.40
  -3  10  -8  111.59   19.70
   3 -10   8  106.69   23.10
  -4  10  -8   44.40   15.90
  -4  10  -8   37.30   16.30
   4 -10   8   74.59   23.70
  -5  10  -8  -13.50   12.10
  -6  10  -8   96.49   22.50
  -7  10  -8  107.79   24.60
  -5  -9   8   57.59   21.70
  -5  -9   8   81.99   25.40
   4   9  -8   43.30   19.70
  -4  -9   8   34.30   20.10
  -4  -9   8   43.30   19.20
   3   9  -8   11.20   16.70
  -3  -9   8   -1.40   16.00
  -3  -9   8    0.70   17.80
   2   9  -8  217.18   30.10
  -2  -9   8  170.28   26.00
  -2  -9   8  228.98   29.30
  -2  -9   8  233.78   33.90
   1   9  -8  173.18   29.00
  -1  -9   8   91.79   23.90
  -1  -9   8  169.48   27.50
   0   9  -8   44.00   18.60
   0  -9   8   46.90   21.10
   0  -9   8   49.40   18.20
  -1   9  -8  460.95   34.60
   1  -9   8  413.36   34.40
   1  -9   8  504.65   40.70
  -2   9  -8  254.77   23.80
  -2   9  -8  249.18   28.90
   2  -9   8  229.48   27.90
   2  -9   8  283.17   35.10
  -3   9  -8   -8.20   12.20
  -3   9  -8   -5.60    9.80
   3  -9   8  -11.80   14.70
  -4   9  -8  115.19   20.20
  -4   9  -8  119.59   19.40
   4  -9   8   93.49   22.60
  -5   9  -8  220.48   27.70
  -6   9  -8   29.90   18.00
  -7   9  -8   37.60   18.50
  -8   9  -8  203.78   36.00
  -8   9  -8   96.69   25.50
  -6  -8   8   30.60   20.50
  -6  -8   8  -14.80   15.10
  -5  -8   8    2.80   15.90
  -5  -8   8   19.60   19.10
   4   8  -8  242.38   32.40
  -4  -8   8  275.87   31.70
  -4  -8   8  274.37   35.30
   3   8  -8  281.17   31.30
  -3  -8   8  217.18   25.40
  -3  -8   8  230.08   32.80
  -3  -8   8  238.68   29.30
   2   8  -8    2.00   12.80
  -2  -8   8    4.20   11.50
  -2  -8   8   -6.80   11.30
  -2  -8   8  -10.80   15.00
   1   8  -8  307.77   30.40
  -1  -8   8  352.86   34.90
  -1  -8   8  301.97   30.80
   0   8  -8  246.78   27.50
   0  -8   8  293.57   30.20
   0  -8   8  218.78   28.40
  -1   8  -8   57.19   16.50
  -1   8  -8   63.59   13.50
   1  -8   8   38.90   17.80
   1  -8   8   45.60   16.90
  -2   8  -8  221.38   25.20
  -2   8  -8  199.18   21.90
   2  -8   8  224.88   31.50
   2  -8   8  173.08   26.10
  -3   8  -8  351.86   27.00
  -3   8  -8  318.17   26.00
   3  -8   8  259.87   28.30
   3  -8   8  283.27   32.70
  -4   8  -8   55.89   14.30
  -4   8  -8   75.29   16.50
   4  -8   8   86.29   17.60
   4  -8   8   75.39   19.70
  -5   8  -8   17.10   14.50
   5  -8   8   84.19   18.00
  -6   8  -8  214.18   29.90
   6  -8   8  258.47   27.40
  -7   8  -8   66.69   21.60
  -8   8  -8  -15.10   15.10
  -8   8  -8   21.60   18.70
  -9   8  -8  101.19   26.10
  -9   8  -8  112.99   29.30
  -7  -7   8    4.50   17.70
  -7  -7   8    7.50   16.90
  -6  -7   8  191.08   30.90
  -6  -7   8  163.28   28.90
  -5  -7   8  248.68   33.20
  -5  -7   8  200.48   29.20
   4   7  -8    4.20   15.30
  -4  -7   8   -1.60   15.50
  -4  -7   8   -2.80   14.10
   3   7  -8   63.79   18.20
  -3  -7   8   81.39   14.90
  -3  -7   8   47.20   18.20
  -3  -7   8   55.39   17.70
   2   7  -8  191.38   25.70
  -2  -7   8  214.18   25.50
  -2  -7   8  163.88   21.00
  -2  -7   8  129.29   22.90
   1   7  -8  -23.20   10.90
  -1  -7   8    0.20   14.20
  -1  -7   8   -6.80   11.40
   0   7  -8   23.30   14.20
   0   7  -8   25.70    9.70
   0  -7   8   33.70   15.20
   0  -7   8   24.40   16.70
  -1   7  -8  677.03   35.70
  -1   7  -8  643.74   30.10
   1  -7   8  668.23   40.90
   1  -7   8  670.33   37.60
  -2   7  -8  218.48   21.90
  -2   7  -8  234.18   23.00
   2  -7   8  199.48   26.50
   2  -7   8  223.18   30.10
  -3   7  -8   23.70   12.30
  -3   7  -8   36.30   12.90
   3  -7   8   61.79   17.10
   3  -7   8   26.90   15.40
  -4   7  -8  509.15   33.80
  -4   7  -8  485.15   26.40
   4  -7   8  432.26   32.80
   4  -7   8  514.35   38.20
  -5   7  -8  140.19   22.20
   5  -7   8  156.68   26.10
  -6   7  -8   -1.80   13.80
   6  -7   8   12.10   12.80
  -7   7  -8  114.69   23.00
  -7   7  -8  166.88   30.60
  -8   7  -8  152.58   28.70
  -8   7  -8  161.88   27.80
  -9   7  -8  -20.10   16.00
  -9   7  -8   -6.00   16.10
  -8  -6   8   95.59   23.90
  -8  -6   8   37.30   21.90
  -7  -6   8  100.09   23.70
  -7  -6   8  125.89   25.90
  -6  -6   8    4.60   15.10
  -6  -6   8   16.80   17.40
  -5  -6   8  447.16   37.40
  -5  -6   8  438.66   36.30
  -4  -6   8  394.36   25.50
  -4  -6   8  393.36   34.20
  -4  -6   8  384.16   32.60
   3   6  -8   21.80   13.40
  -3  -6   8   29.50   10.30
  -3  -6   8   47.90   16.20
  -3  -6   8   31.40   15.80
   2   6  -8  248.78   26.00
  -2  -6   8  240.48   27.50
  -2  -6   8  305.57   27.60
   1   6  -8  420.66   20.00
   1   6  -8  437.86   28.30
  -1  -6   8  346.17   31.30
  -1  -6   8  455.15   31.10
   0   6  -8  265.77   23.90
   0   6  -8  286.57   19.10
   0  -6   8  254.97   26.80
   0  -6   8  246.78   27.60
  -1   6  -8   -4.00    9.30
  -1   6  -8   18.20    9.60
   1  -6   8   -0.90   13.60
   1  -6   8   -9.10   12.30
  -2   6  -8  110.49   17.40
  -2   6  -8   85.49   14.80
   2  -6   8   96.69   18.20
   2  -6   8  103.49   20.00
  -3   6  -8  342.87   26.30
  -3   6  -8  346.37   22.00
   3  -6   8  313.67   28.70
   3  -6   8  378.86   31.80
  -4   6  -8   -5.30    7.80
  -4   6  -8   10.10   12.30
   4  -6   8   23.00   14.00
  -5   6  -8  252.97   27.50
   5  -6   8  250.07   30.20
  -6   6  -8  449.95   35.10
  -6   6  -8  462.65   37.10
   6  -6   8  472.25   35.30
  -7   6  -8   96.59   21.90
  -7   6  -8   54.49   20.60
  -8   6  -8   32.70   19.50
  -8   6  -8   52.29   18.90
  -9   6  -8  197.38   33.40
  -9   6  -8  133.39   26.70
  -9  -5   8   61.79   24.30
  -9  -5   8  116.09   25.70
  -8  -5   8   -7.00   16.60
  -8  -5   8   32.30   18.30
  -7  -5   8  216.68   32.40
  -7  -5   8  131.09   23.60
  -6  -5   8  571.14   40.60
  -6  -5   8  517.45   38.30
  -5  -5   8  113.99   21.70
  -5  -5   8  110.99   21.20
  -4  -5   8  108.29   19.30
  -4  -5   8  107.29   15.90
  -4  -5   8  100.59   19.90
  -3  -5   8  617.04   26.60
  -3  -5   8  656.93   37.00
  -3  -5   8  576.04   35.50
   2   5  -8  291.97   25.80
   2   5  -8  275.97   15.40
  -2  -5   8  312.27   26.90
  -2  -5   8  298.87   26.20
   1   5  -8   25.40   11.20
   1   5  -8   21.50    7.90
  -1  -5   8   41.20   14.10
  -1  -5   8   50.39   15.20
   0   5  -8  547.15   24.90
   0   5  -8  580.04   29.10
   0  -5   8  571.14   32.10
   0  -5   8  640.64   35.70
  -1   5  -8  181.38   17.80
  -1   5  -8  220.48   18.20
   1  -5   8  227.88   25.60
   1  -5   8  181.98   25.40
  -2   5  -8   17.30    9.60
  -2   5  -8   14.90   10.20
   2  -5   8   34.80   13.50
   2  -5   8   26.50   13.80
  -3   5  -8  140.59   15.20
  -3   5  -8  153.68   20.50
   3  -5   8  169.48   24.90
   3  -5   8  136.49   23.00
  -4   5  -8  555.84   33.10
  -4   5  -8  527.05   22.10
   4  -5   8  571.04   35.90
  -5   5  -8  103.49   20.20
  -5   5  -8   98.99   19.20
   5  -5   8   70.39   18.10
  -6   5  -8  141.89   24.60
  -6   5  -8  163.18   25.90
   6  -5   8  128.29   23.30
  -7   5  -8  464.75   37.20
  -7   5  -8  464.45   40.00
  -8   5  -8  158.18   29.20
  -8   5  -8  124.59   24.70
  -9   5  -8    3.40   17.10
  -9   5  -8   -3.80   19.10
  -9  -4   8   73.89   22.00
  -9  -4   8   23.20   18.50
  -8  -4   8  295.27   35.20
  -8  -4   8  269.17   32.90
  -7  -4   8  103.09   23.30
  -7  -4   8  190.48   28.70
  -6  -4   8   41.60   16.40
  -6  -4   8   55.29   16.90
  -5  -4   8  682.63   39.90
  -5  -4   8  650.83   37.30
  -5  -4   8  688.03   29.20
   4   4  -8  355.06   21.10
  -4  -4   8  374.16   28.70
  -4  -4   8  355.56   19.10
  -4  -4   8  366.06   28.30
  -3  -4   8   39.20   14.10
  -3  -4   8   15.90   13.10
  -3  -4   8   60.79    9.30
   2   4  -8  768.32   25.10
  -2  -4   8  780.52   35.20
  -2  -4   8  723.33   36.60
   1   4  -8  641.84   25.10
  -1  -4   8  631.34   32.50
  -1  -4   8  640.04   34.10
   0   4  -8   76.29   11.70
   0   4  -8   73.29   13.00
   0  -4   8   68.89   16.10
   0  -4   8   76.39   15.40
  -1   4  -8  235.68   19.80
  -1   4  -8  221.38   18.00
   1  -4   8  237.88   25.10
   1  -4   8  241.48   22.20
  -2   4  -8  578.94   29.50
   2  -4   8  631.44   35.40
   2  -4   8  638.74   32.70
  -3   4  -8  373.96   26.00
  -3   4  -8  420.96   27.10
   3  -4   8  387.66   29.60
  -4   4  -8  127.69   19.20
  -4   4  -8   91.49   17.20
   4  -4   8  118.59   20.30
  -5   4  -8  646.74   38.40
  -5   4  -8  562.94   35.50
   5  -4   8  607.54   38.60
  -6   4  -8  203.08   25.50
  -6   4  -8  200.78   28.40
  -7   4  -8   47.30   19.00
  -7   4  -8   20.00   15.50
  -8   4  -8  284.67   34.60
  -8   4  -8  218.88   35.20
  -9   4  -8  122.19   28.40
  -9   4  -8  193.78   30.90
 -10  -3   8  171.48   28.50
 -10  -3   8  212.08   35.90
  -9  -3   8   37.70   18.80
  -9  -3   8   49.60   18.90
  -8  -3   8   30.30   18.00
  -8  -3   8   44.80   18.10
  -7  -3   8  506.35   35.30
  -7  -3   8  457.05   36.60
  -6  -3   8  617.34   35.80
  -6  -3   8  491.05   35.60
   5   3  -8  132.09   14.60
  -5  -3   8  167.68   22.10
  -5  -3   8  111.69   13.30
  -5  -3   8   72.99   16.20
   4   3  -8  272.97   19.50
  -4  -3   8  229.58   25.20
  -4  -3   8  243.88   22.80
  -4  -3   8  227.88   13.50
   3   3  -8  946.41   35.80
   3   3  -8  954.40   25.80
  -3  -3   8  914.61   37.70
  -3  -3   8  927.11   41.30
   2   3  -8   59.59    9.20
  -2  -3   8   35.60   11.60
  -2  -3   8   51.79   14.00
   1   3  -8  544.05   23.70
  -1  -3   8  590.84   32.10
  -1  -3   8  570.44   29.00
   0   3  -8 1481.95   44.90
   0  -3   8 1506.85   52.59
   0  -3   8 1570.54   49.50
  -1   3  -8  465.95   24.90
   1  -3   8  452.05   26.80
   1  -3   8  462.25   31.10
  -2   3  -8   31.50   11.60
  -2   3  -8   14.40    9.60
   2  -3   8   19.50   13.10
  -3   3  -8  883.41   38.00
  -3   3  -8  957.80   39.70
   3  -3   8  859.91   41.40
  -4   3  -8  711.23   37.20
  -4   3  -8  673.03   36.40
   4  -3   8  671.63   38.40
  -5   3  -8   -9.60   12.70
  -5   3  -8    2.50   12.10
   5  -3   8    5.10   12.20
  -6   3  -8  423.16   34.20
  -6   3  -8  363.36   34.30
  -7   3  -8  199.38   31.10
  -7   3  -8  208.68   29.60
  -8   3  -8  -18.80   14.80
  -8   3  -8  -15.40   15.10
  -9   3  -8   82.29   23.50
  -9   3  -8   53.29   22.30
 -10  -2   8  -12.70   15.60
 -10  -2   8    3.60   15.20
  -9  -2   8  184.58   27.40
  -9  -2   8  172.48   31.00
  -8  -2   8  140.39   24.80
  -8  -2   8  148.69   27.70
   7   2  -8   -9.40    8.60
  -7  -2   8  -11.20   10.70
  -7  -2   8    8.90   13.20
   6   2  -8  141.19   16.60
  -6  -2   8  118.99   20.60
  -6  -2   8  140.49   19.30
  -6  -2   8  158.98   21.40
   5   2  -8  384.56   22.30
  -5  -2   8  381.36   29.40
  -5  -2   8  406.16   26.90
  -5  -2   8  418.36   17.30
   4   2  -8  224.58   18.90
  -4  -2   8  186.98    9.50
  -4  -2   8  189.48   19.50
  -4  -2   8  237.38   23.90
   3   2  -8  423.56   17.50
   3   2  -8  396.06   23.90
  -3  -2   8  404.06   26.20
  -3  -2   8  430.36   24.00
   2   2  -8 1483.25   40.80
  -2  -2   8 1457.25   44.80
  -2  -2   8 1540.35   51.89
   1   2  -8  485.65   16.50
   1   2  -8  482.45   23.30
  -1  -2   8  464.95   25.10
  -1  -2   8  505.75   30.00
   0   2  -8   80.49   13.50
   0   2  -8   64.99   10.30
   0  -2   8   47.90   15.10
   0  -2   8   68.29   12.70
  -1   2  -8 1352.66   41.30
  -1   2  -8 1361.66   44.70
   1  -2   8 1355.86   49.60
   1  -2   8 1398.86   45.30
  -2   2  -8  921.61   37.60
  -2   2  -8  860.21   34.40
   2  -2   8  883.61   40.50
  -3   2  -8  -11.50    9.30
  -3   2  -8   16.10   10.70
   3  -2   8   14.20   12.30
  -4   2  -8  940.41   42.50
  -4   2  -8  909.11   42.20
   4  -2   8  979.00   44.40
  -5   2  -8  477.95   34.40
  -5   2  -8  532.55   34.90
   5  -2   8  474.95   33.60
  -6   2  -8  135.99   22.80
  -6   2  -8  162.08   27.30
  -7   2  -8   45.70   18.90
  -7   2  -8   43.50   16.90
  -8   2  -8  123.99   25.50
  -8   2  -8  164.18   26.80
  -9   2  -8   45.20   22.80
  -9   2  -8   35.70   20.90
 -11  -1   8   78.89   23.60
 -11  -1   8  117.29   24.60
 -10  -1   8  182.68   33.20
 -10  -1   8  185.48   28.60
  -9  -1   8   -2.00   14.10
  -9  -1   8    9.10   13.70
   8   1  -8  167.58   20.40
  -8  -1   8  224.68   24.70
  -8  -1   8  162.18   27.20
   7   1  -8  702.63   32.20
  -7  -1   8  686.63   40.40
  -7  -1   8  718.43   36.30
   6   1  -8   74.69   13.00
  -6  -1   8  115.79   17.30
  -6  -1   8   92.69   17.40
  -6  -1   8   61.79   11.10
   5   1  -8  101.09   15.60
  -5  -1   8  117.09    9.20
  -5  -1   8  117.19   20.50
  -5  -1   8  146.19   17.60
   4   1  -8 1088.49   39.60
  -4  -1   8 1106.59   37.60
  -4  -1   8 1215.58   45.40
   3   1  -8  394.16   18.30
   3   1  -8  448.86   25.10
  -3  -1   8  394.86   26.60
  -3  -1   8  386.66   21.10
   2   1  -8   41.30    9.30
  -2  -1   8   39.40   12.90
  -2  -1   8   46.20    9.80
   1   1  -8 1075.59   35.80
   1   1  -8 1050.29   26.20
  -1  -1   8  963.20   33.30
  -1  -1   8 1013.20   41.80
   0   1  -8 1408.06   37.80
   0   1  -8 1408.56   44.70
   0  -1   8 1389.16   48.70
   0  -1   8 1400.76   41.70
  -1   1  -8  -15.60    6.20
  -1   1  -8   -0.20    8.60
   1  -1   8    3.00   11.70
  -2   1  -8  836.82   33.80
  -2   1  -8  914.81   37.80
   2  -1   8  852.41   39.40
  -3   1  -8 1307.97   47.60
  -3   1  -8 1323.77   49.10
   3  -1   8 1310.87   49.99
  -4   1  -8   56.19   15.30
  -4   1  -8   15.60   13.80
   4  -1   8   30.10   14.10
  -5   1  -8   58.49   16.20
  -5   1  -8   55.59   16.90
  -6   1  -8  645.94   40.40
  -6   1  -8  504.95   37.00
  -7   1  -8  221.08   32.60
  -7   1  -8  223.98   31.10
  -8   1  -8    3.30   18.20
  -8   1  -8  -10.90   16.60
  -9   1  -8  276.17   39.80
  -9   1  -8  168.58   30.80
  -9   1  -8  187.18   31.40
 -11   0   8   73.09   19.20
 -11   0   8   56.09   20.70
 -10   0   8  118.29   23.90
 -10   0   8  111.09   20.60
   9   0  -8  431.66   36.20
  -9   0   8  513.45   39.60
  -9   0   8  505.05   33.10
   8   0  -8  314.07   24.20
  -8   0   8  386.56   28.30
  -8   0   8  276.37   30.10
   7   0  -8  357.56   25.20
  -7   0   8  327.47   26.40
  -7   0   8  408.36   31.60
  -7   0   8  331.87   24.80
   6   0  -8  592.94   29.60
  -6   0   8  599.14   28.70
  -6   0   8  560.64   33.60
  -6   0   8  537.45   21.20
   5   0  -8  315.37   22.50
  -5   0   8  287.07   23.70
  -5   0   8  305.47   12.30
  -5   0   8  299.47   19.50
   4   0  -8   71.39   12.70
  -4   0   8   52.39   10.10
  -4   0   8   69.09   13.90
   3   0  -8  555.14   28.00
   3   0  -8  541.75   23.10
  -3   0   8  570.24   22.40
  -3   0   8  556.54   29.50
   2   0  -8 1184.58   42.50
   2   0  -8 1243.58   39.10
  -2   0   8 1295.97   45.20
  -2   0   8 1286.27   35.70
   1   0  -8   69.79   12.60
   1   0  -8   77.89    9.60
  -1   0   8   74.69   12.00
  -1   0   8   83.79   15.30
   0   0  -8  552.64   27.60
   0   0  -8  513.85   22.00
   0   0   8  495.15   28.30
  -1   0  -8  565.64   26.20
  -1   0  -8  597.74   30.60
   1   0   8  540.25   20.50
   1   0   8  524.95   31.00
  -2   0  -8  317.77   25.60
  -2   0  -8  285.37   23.00
   2   0   8  336.57   26.80
   2   0   8  331.37   13.90
  -3   0  -8   89.69   17.30
  -3   0  -8   78.19   16.80
   3   0   8   95.99   17.70
  -4   0  -8  520.15   33.40
  -4   0  -8  531.75   34.40
   4   0   8  556.54   34.60
  -5   0  -8  437.66   34.70
  -5   0  -8  411.36   32.20
  -6   0  -8   28.60   17.30
  -6   0  -8   16.50   17.20
  -7   0  -8  134.79   24.90
  -7   0  -8  179.48   32.40
  -8   0  -8  277.77   34.20
  -8   0  -8  276.57   39.00
  -8   0  -8  244.78   34.20
  -9   0  -8    8.20   19.40
  -9   0  -8   31.00   22.00
  -9   0  -8    0.50   19.10
 -11   1   8  288.17   31.80
 -11   1   8  256.87   34.30
 -10   1   8  131.19   24.20
 -10   1   8  132.39   21.60
   9  -1  -8   15.40   12.40
  -9   1   8   31.40   15.40
  -9   1   8   25.10   12.30
   8  -1  -8  843.02   37.80
  -8   1   8  829.72   43.80
  -8   1   8  810.12   37.20
   7  -1  -8  330.37   24.40
  -7   1   8  314.37   18.80
  -7   1   8  281.87   21.20
  -7   1   8  294.87   26.80
   6  -1  -8    0.20    9.50
  -6   1   8  -12.60    8.60
  -6   1   8   -4.90    5.30
  -6   1   8   -2.00    7.00
   5  -1  -8  623.24   30.10
  -5   1   8  610.04   24.70
  -5   1   8  656.43   32.60
  -5   1   8  664.03   19.90
   4  -1  -8  775.42   33.40
  -4   1   8  805.02   34.80
  -4   1   8  776.72   25.50
   3  -1  -8  362.06   20.30
  -3   1   8  375.66   15.70
  -3   1   8  391.56   24.80
   2  -1  -8  277.17   20.60
   2  -1  -8  296.17   23.20
   2  -1  -8  280.07   12.70
  -2   1   8  287.07   13.80
  -2   1   8  297.57   23.70
   1  -1  -8 1515.65   40.50
   1  -1  -8 1531.95   47.60
  -1   1   8 1520.65   50.09
   0  -1  -8  497.05   23.70
   0  -1  -8  593.24   29.40
   0   1   8  592.34   30.60
   0   1   8  542.55   22.60
  -1  -1  -8  112.59   17.40
  -1  -1  -8   84.09   13.60
   1   1   8   46.60   13.40
   1   1   8   84.99   10.90
  -2  -1  -8  582.24   31.30
  -2  -1  -8  616.84   32.00
   2   1   8  625.74   32.30
   2   1   8  596.54   20.30
  -3  -1  -8  143.99   22.10
  -3  -1  -8   99.09   17.80
   3   1   8  130.29   21.20
  -4  -1  -8   20.00   16.30
  -4  -1  -8   23.20   14.40
  -5  -1  -8  425.26   34.30
  -5  -1  -8  386.76   33.40
  -6  -1  -8  203.98   26.80
  -6  -1  -8  192.68   29.10
  -6  -1  -8  182.48   31.30
  -7  -1  -8    1.60   12.60
  -7  -1  -8  -17.40   15.60
  -7  -1  -8   -0.70   15.40
  -8  -1  -8  127.29   25.70
  -8  -1  -8   82.89   24.50
  -8  -1  -8   98.79   27.10
 -11   2   8    7.30   12.40
 -11   2   8    3.00   14.80
  10  -2  -8  344.07   29.20
 -10   2   8  340.67   28.30
 -10   2   8  337.17   33.60
   9  -2  -8  237.98   24.80
  -9   2   8  290.57   24.50
  -9   2   8  208.58   26.70
   8  -2  -8   13.70   12.00
  -8   2   8   -3.60    8.20
  -8   2   8   -2.70    9.40
  -8   2   8   -8.40   11.00
   7  -2  -8  264.17   25.20
  -7   2   8  234.48   19.10
  -7   2   8  241.58   24.90
  -7   2   8  270.47   18.20
   6  -2  -8  562.64   30.70
  -6   2   8  516.65   29.90
  -6   2   8  528.05   23.40
  -6   2   8  540.35   22.30
   5  -2  -8  137.39   19.10
  -5   2   8  153.18   19.40
  -5   2   8  149.09   12.20
   4  -2  -8  231.88   21.20
  -4   2   8  252.77   12.20
  -4   2   8  257.27   20.50
   3  -2  -8 1122.29   30.30
   3  -2  -8 1181.18   42.40
   3  -2  -8 1105.09   25.90
   3  -2  -8 1139.89   38.40
  -3   2   8 1102.59   40.80
  -3   2   8 1139.89   26.40
  -3   2   8 1206.38   41.50
   2  -2  -8  611.04   23.30
   2  -2  -8  662.53   29.70
   2  -2  -8  660.03   31.00
   2  -2  -8  640.44   16.40
  -2   2   8  626.54   30.20
  -2   2   8  684.53   29.00
   1  -2  -8    5.20    9.70
   1  -2  -8    1.80    9.80
   1  -2  -8    3.20    7.80
  -1   2   8   16.80   10.60
  -1   2   8   10.80    7.80
   0  -2  -8 1150.28   41.70
   0  -2  -8 1133.29   38.80
   0   2   8 1162.08   36.20
   0   2   8 1125.29   42.50
  -1  -2  -8 1073.59   40.30
  -1  -2  -8 1001.20   40.50
   1   2   8 1056.09   32.90
   1   2   8 1092.09   42.50
  -2  -2  -8   -2.40   12.20
  -2  -2  -8  -12.80    9.60
   2   2   8    5.40    6.50
   2   2   8   14.60   12.20
  -3  -2  -8  712.73   38.30
  -3  -2  -8  653.13   31.00
  -3  -2  -8  688.53   38.60
  -4  -2  -8  582.74   32.50
  -4  -2  -8  578.74   38.70
  -4  -2  -8  659.73   38.60
  -5  -2  -8   34.10   14.10
  -5  -2  -8   65.39   21.20
  -5  -2  -8   21.40   16.60
  -6  -2  -8   49.10   16.60
  -6  -2  -8   82.79   21.20
  -6  -2  -8   41.30   20.10
  -7  -2  -8  158.48   30.50
  -7  -2  -8  153.38   26.00
  -7  -2  -8  196.18   31.40
  -8  -2  -8  109.19   25.30
  -8  -2  -8   69.29   26.40
  -8  -2  -8  105.49   24.50
 -12   3   8   80.69   22.50
 -12   3   8  111.39   23.80
  11  -3  -8   99.99   21.70
 -11   3   8   78.99   21.00
 -11   3   8  101.29   22.80
  10  -3  -8   18.60   12.80
 -10   3   8   20.30   11.50
 -10   3   8   14.80   13.30
 -10   3   8   42.40   15.40
   9  -3  -8  194.38   24.70
  -9   3   8  181.18   24.10
  -9   3   8  306.27   29.70
  -9   3   8  172.68   20.10
   8  -3  -8  593.04   34.70
  -8   3   8  584.54   37.10
  -8   3   8  665.13   36.10
  -8   3   8  622.44   29.40
  -8   3   8  608.74   31.00
   7  -3  -8  127.99   21.10
  -7   3   8  153.28   17.00
  -7   3   8  170.68   22.00
  -7   3   8  197.48   21.60
  -7   3   8  129.89   14.90
   6  -3  -8   37.30   13.50
  -6   3   8   40.10    8.10
  -6   3   8   38.00   11.60
  -6   3   8   43.80   14.70
   5  -3  -8 1008.50   41.10
  -5   3   8 1108.79   28.50
  -5   3   8 1034.30   43.00
  -5   3   8 1059.39   39.70
   4  -3  -8  750.62   33.30
  -4   3   8  675.23   30.60
  -4   3   8  615.04   32.10
   3  -3  -8   35.50   11.00
   3  -3  -8   30.10    8.30
   3  -3  -8   25.40   11.80
  -3   3   8   24.90   11.00
  -3   3   8   12.00   10.10
   2  -3  -8 1380.66   41.90
   2  -3  -8 1312.67   46.70
   2  -3  -8 1465.25   47.10
  -2   3   8 1431.76   45.40
  -2   3   8 1386.06   45.40
   1  -3  -8 1139.59   26.60
   1  -3  -8 1089.79   26.10
   1  -3  -8 1081.29   38.10
   1  -3  -8 1077.49   41.50
   1  -3  -8 1034.50   39.90
  -1   3   8 1095.59   37.70
  -1   3   8 1012.30   39.00
   0  -3  -8   56.19   14.70
   0  -3  -8   55.29    9.60
   0  -3  -8   58.79   13.40
   0  -3  -8   74.39   13.80
   0   3   8   63.39   11.60
   0   3   8   71.49   14.00
  -1  -3  -8  401.26   27.00
  -1  -3  -8  435.76   27.80
  -1  -3  -8  404.26   20.30
   1   3   8  396.56   26.60
   1   3   8  412.86   21.30
  -2  -3  -8  604.54   35.40
  -2  -3  -8  664.03   35.50
  -2  -3  -8  615.24   27.90
   2   3   8  542.35   24.00
   2   3   8  654.63   35.10
  -3  -3  -8   92.99   19.80
  -3  -3  -8   80.49   18.10
  -3  -3  -8   81.79   14.50
  -4  -3  -8   38.80   13.60
  -4  -3  -8   21.10   16.70
  -4  -3  -8   30.40   16.70
  -5  -3  -8  291.87   30.80
  -5  -3  -8  383.76   31.60
  -5  -3  -8  369.76   37.60
  -6  -3  -8  226.88   30.20
  -6  -3  -8  137.69   27.90
  -6  -3  -8  160.68   27.50
  -7  -3  -8   16.80   21.90
  -7  -3  -8  -19.40   13.60
  -7  -3  -8  -23.00   14.10
  12  -4  -8   18.40   16.50
 -12   4   8    1.20   13.80
 -12   4   8    1.30   14.20
  11  -4  -8  146.69   24.90
 -11   4   8   91.59   20.30
 -11   4   8  103.49   21.90
  10  -4  -8  267.67   27.70
 -10   4   8  198.88   25.10
 -10   4   8  258.17   29.90
 -10   4   8  196.38   22.90
   9  -4  -8  105.89   19.90
  -9   4   8   93.89   19.70
  -9   4   8   82.59   16.50
   8  -4  -8   52.59   17.20
  -8   4   8   80.69   15.50
  -8   4   8   57.29   11.80
  -8   4   8   52.99   15.90
   7  -4  -8  396.16   29.60
  -7   4   8  381.26   28.90
  -7   4   8  358.36   25.10
  -7   4   8  387.16   19.40
   6  -4  -8  684.73   36.20
  -6   4   8  714.13   32.10
  -6   4   8  686.33   22.70
  -6   4   8  721.53   37.20
   5  -4  -8   30.30   12.20
  -5   4   8   36.10   13.50
  -5   4   8   42.80   11.30
   4  -4  -8  419.56   27.60
  -4   4   8  415.86   24.60
  -4   4   8  452.15   28.10
   3  -4  -8  608.84   30.80
   3  -4  -8  590.84   28.00
   3  -4  -8  631.84   31.50
  -3   4   8  650.93   29.50
  -3   4   8  670.93   31.70
   2  -4  -8  -16.30    9.40
   2  -4  -8   14.30   11.60
   2  -4  -8    3.50    9.10
  -2   4   8    4.20    8.70
  -2   4   8    5.70    9.60
   1  -4  -8  250.47   21.50
   1  -4  -8  244.78   22.70
   1  -4  -8  242.78   10.70
   1  -4  -8  189.78   20.30
  -1   4   8  251.57   20.50
  -1   4   8  244.68   20.00
   0  -4  -8  573.64   30.10
   0  -4  -8  597.04   33.30
   0  -4  -8  599.74   32.80
   0  -4  -8  579.54   21.60
   0   4   8  618.24   28.30
   0   4   8  553.04   29.60
  -1  -4  -8  208.68   16.30
  -1  -4  -8  189.28   20.30
  -1  -4  -8  202.48   24.00
  -1  -4  -8  201.18   24.50
   1   4   8  208.38   22.90
   1   4   8  185.18   18.40
  -2  -4  -8  204.68   24.80
  -2  -4  -8  207.18   19.40
  -2  -4  -8  215.68   22.10
  -2  -4  -8  240.68   27.80
   2   4   8  283.97   20.10
  -3  -4  -8  598.64   40.20
  -3  -4  -8  642.84   32.50
  -3  -4  -8  631.84   33.30
  -3  -4  -8  658.23   38.10
  -4  -4  -8  185.68   30.60
  -4  -4  -8  185.68   24.00
  -4  -4  -8  213.28   27.40
  -5  -4  -8   -0.80   14.10
  -5  -4  -8  -11.70   15.50
  -5  -4  -8  -14.20   11.10
  -6  -4  -8  165.68   25.60
  -6  -4  -8  205.18   36.00
  -6  -4  -8  163.78   28.80
  -7  -4  -8  211.58   31.40
  -7  -4  -8  178.98   27.80
  -7  -4  -8  188.98   34.50
  12  -5  -8  229.18   31.40
 -12   5   8  182.28   28.30
  11  -5  -8   39.20   18.50
 -11   5   8   42.10   18.20
 -11   5   8   59.59   15.40
  10  -5  -8   21.70   14.60
 -10   5   8   19.50   12.40
 -10   5   8   -2.70   14.30
   9  -5  -8  225.88   27.90
  -9   5   8  216.78   23.50
  -9   5   8  215.08   27.70
   8  -5  -8  270.57   26.50
  -8   5   8  254.57   26.30
  -8   5   8  236.98   22.40
   7  -5  -8   -4.00   11.00
  -7   5   8  -11.80    8.00
  -7   5   8   -7.00   11.00
   6  -5  -8  549.05   33.70
  -6   5   8  543.95   27.40
  -6   5   8  505.95   33.00
   5  -5  -8  787.22   38.60
  -5   5   8  780.22   32.40
  -5   5   8  828.32   38.90
   4  -5  -8    6.90    9.40
   4  -5  -8    1.80   11.70
  -4   5   8   11.20    9.50
  -4   5   8    1.90   10.10
   3  -5  -8  265.17   23.80
   3  -5  -8  269.67   22.00
  -3   5   8  267.27   23.50
  -3   5   8  230.28   18.50
   2  -5  -8  879.81   38.30
   2  -5  -8  802.22   37.30
   2  -5  -8  843.32   36.10
  -2   5   8  847.72   32.70
  -2   5   8  836.82   36.60
   1  -5  -8  122.19   19.50
   1  -5  -8  144.29   22.00
   1  -5  -8  119.99   20.70
  -1   5   8  170.58   18.60
  -1   5   8  154.88   17.70
   0  -5  -8   34.00    8.10
   0  -5  -8   22.80   13.80
   0  -5  -8   45.10   12.70
   0  -5  -8   41.60   14.70
   0   5   8   52.49   12.80
   0   5   8   36.00   11.50
  -1  -5  -8  425.96   33.10
  -1  -5  -8  460.45   27.30
  -1  -5  -8  486.15   23.80
  -1  -5  -8  429.96   31.70
   1   5   8  404.66   25.50
  -2  -5  -8  254.27   30.50
  -2  -5  -8  200.88   26.00
  -2  -5  -8  214.48   20.90
  -2  -5  -8  227.38   20.10
   2   5   8  224.98   20.50
  -3  -5  -8    5.90   13.30
  -3  -5  -8    7.60   10.50
  -3  -5  -8  -13.50   15.50
  -3  -5  -8    4.90   11.50
  -4  -5  -8  137.49   26.40
  -4  -5  -8  149.69   22.80
  -4  -5  -8  146.19   23.10
  -5  -5  -8  232.78   36.30
  -5  -5  -8  227.38   28.40
  -5  -5  -8  257.37   30.20
  -6  -5  -8   -5.30   14.70
  -6  -5  -8   -5.00   14.20
  -6  -5  -8    1.80   19.80
  11  -6  -8   86.79   21.70
 -11   6   8   78.49   18.00
 -11   6   8   65.89   20.40
  10  -6  -8  193.88   29.00
 -10   6   8  121.89   22.70
   9  -6  -8    6.90   15.50
  -9   6   8   17.40   14.60
   8  -6  -8  151.28   26.20
  -8   6   8  154.78   23.90
   7  -6  -8  328.37   29.90
  -7   6   8  341.67   30.50
   6  -6  -8  116.89   20.20
  -6   6   8  111.99   20.00
  -6   6   8  110.59   16.70
   5  -6  -8  259.77   26.10
  -5   6   8  222.58   19.20
  -5   6   8  270.77   26.80
   4  -6  -8  584.84   33.90
   4  -6  -8  609.04   33.40
  -4   6   8  589.64   25.50
  -4   6   8  648.34   35.20
   3  -6  -8  394.26   29.40
   3  -6  -8  376.76   27.80
  -3   6   8  432.86   22.00
  -3   6   8  449.66   30.00
   2  -6  -8  154.08   20.70
   2  -6  -8  176.48   21.10
   2  -6  -8  200.88   25.20
  -2   6   8  201.38   21.90
  -2   6   8  157.28   16.40
   1  -6  -8  422.86   31.80
   1  -6  -8  394.46   26.60
   1  -6  -8  408.86   29.70
  -1   6   8  415.56   27.70
   0  -6  -8  208.98   28.10
   0  -6  -8  205.08   21.00
   0  -6  -8  232.38   25.70
   0   6   8  213.98   21.60
  -1  -6  -8   20.60   16.10
  -1  -6  -8    0.90   10.30
  -1  -6  -8    0.60   13.00
   1   6   8   30.50   12.30
  -2  -6  -8  142.29   27.70
  -2  -6  -8  187.18   26.40
  -2  -6  -8  137.69   26.20
  -2  -6  -8  175.08   29.80
   2   6   8  153.78   21.60
  -3  -6  -8  294.07   30.20
  -3  -6  -8  248.38   34.60
  -3  -6  -8  288.77   31.80
  -4  -6  -8   26.10   19.70
  -4  -6  -8  101.19   19.80
  -4  -6  -8   12.50   14.60
  -5  -6  -8  104.99   28.30
  -5  -6  -8  119.69   32.50
  -5  -6  -8  175.78   27.00
  11  -7  -8   46.70   19.30
 -11   7   8   72.59   19.80
 -11   7   8   16.10   12.70
  10  -7  -8  119.39   23.60
 -10   7   8  171.68   26.90
   9  -7  -8  151.08   26.40
  -9   7   8  207.58   27.60
   8  -7  -8   44.40   16.40
  -8   7   8   77.69   19.40
   7  -7  -8   23.00   13.60
  -7   7   8   17.10   13.50
   6  -7  -8  354.46   30.80
  -6   7   8  349.96   30.60
   5  -7  -8   63.59   17.00
  -5   7   8   74.89   17.90
   4  -7  -8  145.99   22.50
   4  -7  -8  129.89   20.70
  -4   7   8  129.49   21.20
   3  -7  -8  919.51   41.90
   3  -7  -8  992.50   45.50
  -3   7   8  888.21   42.90
   2  -7  -8  394.56   32.20
   2  -7  -8  355.46   26.70
  -2   7   8  350.56   28.30
   1  -7  -8   17.60   14.80
   1  -7  -8    5.60   12.60
   1  -7  -8   19.50   11.70
  -1   7   8   32.60   14.20
   0  -7  -8  256.87   30.70
   0  -7  -8  226.18   26.70
   0  -7  -8  213.28   21.50
   0   7   8  185.68   23.30
  -1  -7  -8  294.47   33.90
  -1  -7  -8  284.87   28.80
   1   7   8  285.37   27.20
  -2  -7  -8   81.39   18.00
  -2  -7  -8   67.79   23.00
   2   7   8   80.69   17.80
  -3  -7  -8   33.20   20.90
  -3  -7  -8   60.49   17.50
  -4  -7  -8  205.18   30.30
  -4  -7  -8  144.79   28.70
  -5  -7  -8   35.00   22.20
  11  -8  -8  194.48   32.10
 -11   8   8  218.08   29.50
  10  -8  -8   30.80   18.90
 -10   8   8   39.00   16.20
   9  -8  -8   67.19   20.00
  -9   8   8   38.30   16.80
   8  -8  -8  255.07   31.10
  -8   8   8  300.37   32.70
   7  -8  -8  236.28   30.10
  -7   8   8  258.87   29.60
   6  -8  -8    2.70   14.00
  -6   8   8    7.70   14.10
   5  -8  -8  249.08   27.90
  -5   8   8  148.09   23.50
   4  -8  -8  177.18   27.40
   4  -8  -8  256.17   26.30
  -4   8   8  214.68   27.00
   3  -8  -8   -0.40   12.10
   3  -8  -8   -8.50   13.70
  -3   8   8  -16.30   11.50
   2  -8  -8   17.60   16.90
   2  -8  -8   49.90   14.90
  -2   8   8   70.59   17.60
   1  -8  -8  201.38   31.60
   1  -8  -8  279.77   24.40
  -1   8   8  245.48   27.30
   0  -8  -8  108.99   24.60
   0  -8  -8   91.29   18.80
   0   8   8   74.79   17.70
  -1  -8  -8    6.00   13.00
  -1  -8  -8   19.30   18.60
   1   8   8    3.20   13.60
  -2  -8  -8  259.77   30.70
  -2  -8  -8  228.38   36.20
  -3  -8  -8   84.99   20.20
  -3  -8  -8   84.69   24.80
  -4  -8  -8  -18.50   21.70
  10  -9  -8  123.59   27.70
 -10   9   8  108.49   24.80
   9  -9  -8  119.79   25.10
  -9   9   8  118.09   25.10
   8  -9  -8  -10.40   13.90
  -8   9   8    3.50   15.20
   7  -9  -8  177.88   28.30
  -7   9   8  107.59   22.10
   6  -9  -8  162.28   27.60
  -6   9   8  167.98   26.00
   5  -9  -8   21.20   15.30
  -5   9   8   30.90   16.40
   4  -9  -8   34.80   18.00
   4  -9  -8   32.80   15.20
  -4   9   8   35.10   16.90
   3  -9  -8  105.29   19.60
   3  -9  -8  107.79   23.40
  -3   9   8  121.59   23.00
   2  -9  -8   33.10   18.90
   2  -9  -8   91.59   17.00
  -2   9   8   60.49   18.30
   1  -9  -8   25.30   17.70
  -1   9   8   -1.80   13.50
   0  -9  -8  125.09   28.40
   0   9   8  184.28   27.10
  -1  -9  -8   72.69   23.70
   1   9   8   78.99   19.40
  -2  -9  -8    1.40   16.00
  -3  -9  -8   75.99   28.00
   9 -10  -8   38.80   20.00
  -9  10   8   83.19   22.90
   8 -10  -8  138.39   27.40
  -8  10   8  135.79   25.70
   7 -10  -8   16.80   17.50
  -7  10   8   27.90   18.90
   6 -10  -8   64.89   20.00
  -6  10   8   61.09   20.30
   5 -10  -8  194.98   27.70
  -5  10   8  167.88   29.50
   4 -10  -8   99.09   24.20
   4 -10  -8  150.48   25.80
  -4  10   8   93.59   22.10
   3 -10  -8   -5.90   15.40
   3 -10  -8   -3.20   12.50
  -3  10   8   11.20   15.90
   2 -10  -8  114.89   26.40
  -2  10   8  109.89   23.30
   1 -10  -8   71.99   24.50
  -1  10   8   74.59   20.30
   0 -10  -8  -30.50   17.80
   0  10   8  -28.10   14.90
  -1 -10  -8  103.39   28.90
   1  10   8   69.69   22.50
   8 -11  -8   -4.30   16.80
  -8  11   8   -1.30   17.80
   7 -11  -8  113.39   23.50
  -7  11   8  116.39   26.50
  -6  11   8  -10.70   17.10
   5 -11  -8   12.80   16.50
  -5  11   8   21.30   19.50
   4 -11  -8   94.49   21.80
   4 -11  -8  133.69   27.00
  -4  11   8  170.58   28.60
   3 -11  -8  227.58   34.70
   2 -11  -8   19.80   21.50
  -2  11   8    5.30   17.30
   1 -11  -8   59.39   24.20
  -1  11   8   56.89   21.30
   6 -12  -8   40.90   20.20
  -6  12   8   34.40   19.80
   5 -12  -8   92.29   22.20
  -5  12   8   79.19   24.60
   4 -12  -8    0.90   20.10
  -4  12   8   21.80   19.90
  -2  12  -9   57.99   21.90
   2 -12   9   35.80   23.90
   3 -12   9   19.00   21.00
   2  11  -9   -7.30   16.80
  -2 -11   9    2.80   18.60
   1  11  -9   50.79   20.80
  -1 -11   9   42.50   20.70
   0  11  -9   61.79   22.60
   0 -11   9   24.20   21.90
  -1  11  -9   25.00   18.30
   1 -11   9  -11.70   17.60
  -2  11  -9   34.10   17.30
   2 -11   9   50.19   24.10
  -3  11  -9   98.09   22.60
   3 -11   9  105.49   27.10
  -4  11  -9   27.80   18.00
  -4  11  -9   14.90   17.80
   4 -11   9   44.60   22.50
  -5  11  -9   -9.20   15.20
  -6  11  -9   68.79   22.10
   3  10  -9  110.49   23.80
  -3 -10   9   49.00   23.40
   2  10  -9  211.98   32.80
  -2 -10   9  169.48   30.80
   1  10  -9    2.00   17.00
  -1 -10   9   16.30   19.80
   0  10  -9   86.59   22.60
   0 -10   9   88.19   25.80
  -1  10  -9  162.78   25.90
   1 -10   9   96.09   24.00
  -2  10  -9   37.60   17.20
   2 -10   9   17.30   21.10
  -3  10  -9   36.70   17.20
  -3  10  -9    4.30   13.10
   3 -10   9   29.30   20.50
  -4  10  -9   99.19   19.80
  -4  10  -9  101.49   20.80
   4 -10   9  143.39   28.30
  -5  10  -9   85.39   20.30
  -6  10  -9  -13.10   14.60
  -7  10  -9   61.59   22.80
  -5  -9   9   21.00   20.90
  -5  -9   9   22.60   19.70
   4   9  -9  189.58   32.30
  -4  -9   9   85.49   25.30
  -4  -9   9  160.38   28.80
   3   9  -9   29.80   17.70
  -3  -9   9   48.20   22.50
  -3  -9   9   -2.10   15.60
   2   9  -9   30.60   17.90
  -2  -9   9   12.60   14.80
  -2  -9   9   19.00   19.00
   1   9  -9  299.27   32.90
  -1  -9   9  243.38   31.90
  -1  -9   9  270.77   36.10
   0   9  -9   97.09   21.20
   0  -9   9  105.69   24.20
   0  -9   9   82.29   20.90
  -1   9  -9   28.30   16.80
   1  -9   9   -4.70   15.80
   1  -9   9   13.20   16.80
  -2   9  -9  250.57   29.30
  -2   9  -9  283.67   26.40
   2  -9   9  306.17   31.10
   2  -9   9  309.77   36.90
  -3   9  -9  157.48   25.00
  -3   9  -9  143.29   22.50
   3  -9   9  134.59   24.50
   3  -9   9   88.09   23.20
  -4   9  -9  -13.80   11.10
  -4   9  -9    6.00   14.10
   4  -9   9   -8.90   17.20
  -5   9  -9  102.29   21.80
  -6   9  -9   95.89   22.20
  -7   9  -9   10.30   17.60
  -8   9  -9   19.50   18.50
  -8   9  -9    7.20   17.70
  -6  -8   9   86.39   25.50
  -6  -8   9  107.69   26.00
  -5  -8   9   28.40   18.50
  -5  -8   9   70.49   24.50
   4   8  -9   18.70   17.90
  -4  -8   9    0.10   16.30
  -4  -8   9   14.30   16.50
   3   8  -9  124.89   23.10
  -3  -8   9   99.19   22.10
  -3  -8   9  150.38   25.70
   2   8  -9  143.99   24.20
  -2  -8   9  177.78   27.80
  -2  -8   9  108.79   24.50
   1   8  -9   22.60   17.00
  -1  -8   9   15.40   14.80
  -1  -8   9    7.30   17.00
   0   8  -9  334.87   30.60
   0  -8   9  276.67   31.90
   0  -8   9  313.67   34.40
  -1   8  -9  499.15   29.30
  -1   8  -9  563.34   34.90
   1  -8   9  535.65   38.10
   1  -8   9  534.15   38.70
  -2   8  -9   17.10   11.50
  -2   8  -9  -11.50   11.70
   2  -8   9   -7.80   12.30
   2  -8   9  -23.20   14.90
  -3   8  -9  171.78   21.50
  -3   8  -9  132.89   21.70
   3  -8   9  117.39   24.40
   3  -8   9  147.19   26.80
  -4   8  -9  216.08   25.70
  -4   8  -9  262.97   28.90
   4  -8   9  276.27   30.80
   4  -8   9  234.58   28.70
  -5   8  -9   21.20   15.00
   5  -8   9   32.90   16.30
  -6   8  -9   64.09   19.60
   6  -8   9   49.10   17.60
  -7   8  -9  127.79   25.20
  -7   8  -9  150.38   27.60
  -8   8  -9  123.89   29.50
  -8   8  -9   94.09   24.90
  -7  -7   9   18.60   19.80
  -7  -7   9   12.70   20.00
  -6  -7   9   24.10   20.70
  -6  -7   9   12.80   18.00
  -5  -7   9  191.18   31.50
  -5  -7   9  182.38   32.40
  -4  -7   9  157.38   25.50
  -4  -7   9  172.98   30.40
   3   7  -9   38.20   16.00
  -3  -7   9   16.10   14.70
  -3  -7   9   16.10   16.40
   2   7  -9  121.99   21.30
  -2  -7   9  134.39   23.20
  -2  -7   9  103.49   20.20
   1   7  -9  311.07   28.90
  -1  -7   9  317.97   32.50
  -1  -7   9  332.17   32.70
   0   7  -9   66.59   16.80
   0   7  -9  102.39   15.90
   0  -7   9   71.49   18.80
   0  -7   9   76.99   18.80
  -1   7  -9  384.96   29.50
  -1   7  -9  404.56   25.30
   1  -7   9  345.47   34.00
   1  -7   9  434.06   34.80
  -2   7  -9  521.35   30.80
  -2   7  -9  512.65   30.80
   2  -7   9  528.55   35.40
   2  -7   9  484.95   37.10
  -3   7  -9   99.49   17.50
  -3   7  -9  119.39   18.80
   3  -7   9  147.69   26.60
   3  -7   9  102.79   22.30
  -4   7  -9    8.40   12.90
   4  -7   9   49.00   16.00
  -5   7  -9  204.08   27.30
   5  -7   9  221.98   30.20
  -6   7  -9  118.19   22.60
  -6   7  -9  180.18   29.40
   6  -7   9  168.48   26.80
  -7   7  -9  -14.20   16.80
  -7   7  -9   12.20   16.90
  -8   7  -9   95.79   24.00
  -8   7  -9   90.49   25.30
  -8  -6   9  -16.80   13.20
  -8  -6   9   -5.30   18.90
  -7  -6   9  155.08   27.60
  -7  -6   9  168.48   29.80
  -6  -6   9   94.69   23.10
  -6  -6   9  106.19   23.40
  -5  -6   9   -5.40   14.90
  -5  -6   9   -5.60   14.60
  -4  -6   9  268.47   30.80
  -4  -6   9  321.87   32.30
  -3  -6   9  464.65   35.10
  -3  -6   9  420.76   34.20
   2   6  -9   31.40   15.20
  -2  -6   9   10.00   14.50
  -2  -6   9   28.40   15.60
   1   6  -9  144.29   22.60
   1   6  -9  171.08   16.10
  -1  -6   9  200.68   26.30
  -1  -6   9  222.58   27.40
   0   6  -9  530.25   31.40
   0   6  -9  451.55   24.50
   0  -6   9  470.35   35.70
   0  -6   9  512.95   33.70
  -1   6  -9  104.29   18.00
  -1   6  -9  131.79   18.20
   1  -6   9  109.29   21.00
   1  -6   9  120.99   21.70
  -2   6  -9   49.60   12.80
  -2   6  -9   49.90   13.30
   2  -6   9   67.79   18.10
   2  -6   9   49.40   16.90
  -3   6  -9  329.67   22.40
  -3   6  -9  333.57   26.90
   3  -6   9  334.67   32.30
   3  -6   9  335.37   30.80
  -4   6  -9  161.28   24.10
   4  -6   9  286.17   31.80
  -5   6  -9    2.80   13.40
  -5   6  -9   13.10   14.60
   5  -6   9    9.60   15.20
  -6   6  -9  130.79   23.10
  -6   6  -9  167.28   29.20
   6  -6   9  203.78   27.60
  -7   6  -9  217.88   31.30
  -7   6  -9  233.18   33.10
  -8   6  -9   24.00   19.20
  -8   6  -9   73.09   22.90
  -9   6  -9   45.70   21.40
  -9   6  -9   55.59   23.80
  -8  -5   9  105.49   24.80
  -8  -5   9   96.09   24.90
  -7  -5   9  -14.80   13.00
  -7  -5   9  -33.70   13.00
  -6  -5   9  236.38   30.00
  -6  -5   9  263.07   32.30
  -5  -5   9  504.25   38.10
  -5  -5   9  556.94   37.60
   4   5  -9   60.99   18.50
  -4  -5   9   38.00   15.60
  -4  -5   9   46.80   16.70
  -3  -5   9  389.46   31.10
  -3  -5   9  368.76   31.10
  -2  -5   9  821.82   40.50
  -2  -5   9  855.21   42.60
   1   5  -9  169.28   16.80
   1   5  -9  149.49   20.90
  -1  -5   9  202.78   25.70
  -1  -5   9  189.48   24.70
   0   5  -9   13.90    9.80
   0   5  -9   26.50   11.60
   0  -5   9   11.10   13.50
   0  -5   9   18.70   15.40
  -1   5  -9  496.65   26.40
  -1   5  -9  501.85   27.50
   1  -5   9  436.26   32.30
   1  -5   9  482.55   34.30
  -2   5  -9  671.63   29.40
  -2   5  -9  634.64   32.20
   2  -5   9  568.04   36.10
   2  -5   9  658.33   38.00
  -3   5  -9   27.40   12.70
   3  -5   9   23.90   15.00
  -4   5  -9  348.17   29.30
  -4   5  -9  318.27   28.60
   4  -5   9  346.67   32.30
  -5   5  -9  418.56   33.90
  -5   5  -9  427.36   33.50
   5  -5   9  432.56   35.70
  -6   5  -9   59.49   19.30
  -6   5  -9   88.19   20.50
   6  -5   9   38.30   17.80
  -7   5  -9   46.80   19.80
  -7   5  -9   80.69   20.90
  -8   5  -9  225.78   33.40
  -8   5  -9  180.88   31.00
  -9   5  -9   87.89   25.00
  -9   5  -9   72.49   23.60
  -9  -4   9   15.30   17.80
  -9  -4   9   27.70   19.90
  -8  -4   9  137.39   25.00
  -8  -4   9  107.89   23.50
  -7  -4   9  453.65   39.00
  -7  -4   9  373.16   34.40
  -6  -4   9  153.48   27.10
  -6  -4   9  109.89   20.80
   5   4  -9  113.09   18.10
  -5  -4   9  105.99   20.50
  -5  -4   9  105.29   18.70
   4   4  -9  497.15   26.50
  -4  -4   9  460.75   33.90
  -4  -4   9  453.05   31.70
  -3  -4   9  183.08   23.10
  -3  -4   9  178.28   23.20
   2   4  -9   57.19   10.10
  -2  -4   9   53.89   14.60
  -2  -4   9   51.09   15.50
   1   4  -9  457.05   22.90
  -1  -4   9  448.16   31.70
  -1  -4   9  425.36   28.80
   0   4  -9  548.55   26.80
   0  -4   9  548.05   32.40
   0  -4   9  577.44   35.80
  -1   4  -9   82.79   13.80
   1  -4   9  109.09   19.60
   1  -4   9  128.59   21.00
  -2   4  -9   37.00   12.70
  -2   4  -9   21.10   11.00
   2  -4   9   22.00   14.60
   2  -4   9   52.09   15.90
  -3   4  -9  477.05   30.80
  -3   4  -9  496.65   29.90
   3  -4   9  517.35   34.70
  -4   4  -9  104.09   19.50
  -4   4  -9   86.19   17.80
   4  -4   9   55.09   17.90
  -5   4  -9  205.18   25.20
  -5   4  -9  199.78   27.10
   5  -4   9  234.08   30.40
  -6   4  -9  633.24   42.00
  -6   4  -9  628.44   41.30
   6  -4   9  594.74   42.00
  -7   4  -9  182.08   30.60
  -7   4  -9  226.78   32.30
  -8   4  -9    0.40   17.00
  -8   4  -9   15.20   18.90
  -9   4  -9  109.19   27.60
  -9   4  -9  141.09   29.20
 -10  -3   9   25.20   19.10
 -10  -3   9   13.30   19.90
  -9  -3   9   98.59   26.10
  -9  -3   9   84.99   22.70
  -8  -3   9   86.79   22.50
  -8  -3   9   52.89   18.40
  -7  -3   9   27.40   15.20
  -7  -3   9   22.30   15.50
   6   3  -9  609.24   29.60
  -6  -3   9  588.94   35.80
  -6  -3   9  596.44   38.00
   5   3  -9  610.44   28.80
  -5  -3   9  603.94   38.10
  -5  -3   9  642.24   34.60
   4   3  -9    3.00    9.80
  -4  -3   9    0.40   12.40
  -4  -3   9   -3.30   10.30
   3   3  -9  357.36   26.20
   3   3  -9  340.77   16.50
  -3  -3   9  351.56   24.80
  -3  -3   9  324.17   27.80
   2   3  -9  292.07   18.30
  -2  -3   9  277.97   26.40
  -2  -3   9  337.87   23.70
   1   3  -9   -6.10    8.10
  -1  -3   9    0.40   10.10
  -1  -3   9    5.90   12.70
   0   3  -9  443.56   20.60
   0   3  -9  455.25   25.10
   0  -3   9  415.06   31.20
   0  -3   9  483.25   28.70
  -1   3  -9  932.71   33.60
  -1   3  -9  962.40   37.70
   1  -3   9  931.31   38.80
   1  -3   9  947.81   43.80
  -2   3  -9  332.87   25.00
  -2   3  -9  278.67   21.90
   2  -3   9  309.27   28.50
  -3   3  -9  111.59   19.80
  -3   3  -9   76.69   16.20
   3  -3   9   81.19   18.30
  -4   3  -9  770.62   39.20
  -4   3  -9  757.12   39.90
   4  -3   9  750.42   42.10
  -5   3  -9  246.78   28.00
  -5   3  -9  170.48   26.40
   5  -3   9  191.28   28.60
  -6   3  -9   11.90   15.90
  -6   3  -9   30.30   16.30
  -7   3  -9  259.57   33.20
  -7   3  -9  193.08   31.60
  -8   3  -9  159.98   28.50
  -8   3  -9  203.78   33.60
  -9   3  -9  -17.10   16.20
  -9   3  -9    1.50   16.60
 -10  -2   9   55.39   20.10
 -10  -2   9   29.80   18.60
  -9  -2   9   50.89   18.30
  -9  -2   9   37.80   19.30
  -8  -2   9  191.68   29.60
  -8  -2   9  191.78   26.90
   7   2  -9  435.46   26.40
  -7  -2   9  439.56   36.00
  -7  -2   9  414.76   31.10
   6   2  -9    7.70    9.80
  -6  -2   9  -12.10    9.10
  -6  -2   9    3.30   13.00
   5   2  -9  403.06   24.90
  -5  -2   9  406.06   30.00
  -5  -2   9  412.56   26.70
   4   2  -9  815.92   34.50
  -4  -2   9  852.61   40.10
  -4  -2   9  863.81   35.40
   3   2  -9   44.90    8.60
   3   2  -9   30.80   12.60
  -3  -2   9   42.90   11.50
  -3  -2   9   32.10   12.40
   2   2  -9  137.89   15.00
  -2  -2   9  130.19   16.50
  -2  -2   9  135.59   19.90
   1   2  -9  898.51   33.70
   1   2  -9  913.91   24.90
  -1  -2   9  911.91   42.10
  -1  -2   9  833.12   34.00
   0   2  -9  501.25   20.90
   0   2  -9  499.25   27.00
   0  -2   9  459.85   31.90
   0  -2   9  426.86   24.40
  -1   2  -9  130.59   15.40
  -1   2  -9  125.49   19.30
   1  -2   9  128.09   18.60
   1  -2   9  129.89   20.90
  -2   2  -9  705.43   31.70
  -2   2  -9  677.43   34.20
   2  -2   9  654.03   37.50
  -3   2  -9  609.64   35.00
  -3   2  -9  571.34   32.50
   3  -2   9  618.74   37.40
  -4   2  -9    6.70   13.70
  -4   2  -9   -4.60   11.60
   4  -2   9    5.80   13.50
  -5   2  -9  233.48   27.70
  -5   2  -9  292.07   30.60
   5  -2   9  256.67   30.60
  -6   2  -9  625.14   41.80
  -6   2  -9  673.33   41.30
  -7   2  -9   25.70   18.10
  -7   2  -9    9.20   16.50
  -8   2  -9  106.19   26.00
  -8   2  -9   57.79   22.30
  -9   2  -9  226.58   34.70
  -9   2  -9  183.18   34.00
 -10  -1   9  220.48   30.40
 -10  -1   9  247.88   35.20
  -9  -1   9  198.88   28.40
  -9  -1   9  193.28   31.60
   8   1  -9   26.00   11.80
  -8  -1   9   25.40   12.80
  -8  -1   9   30.70   16.30
   7   1  -9  551.74   29.70
  -7  -1   9  536.05   31.80
  -7  -1   9  536.45   37.40
   6   1  -9  616.24   31.00
  -6  -1   9  586.94   30.80
  -6  -1   9  616.64   37.60
   5   1  -9  220.88   20.30
  -5  -1   9  210.38   18.90
  -5  -1   9  273.57   26.00
   4   1  -9  265.27   21.70
   4   1  -9  237.88   15.20
  -4  -1   9  278.57   20.40
  -4  -1   9  236.48   22.80
   3   1  -9  838.62   29.90
   3   1  -9  845.42   36.50
  -3  -1   9  844.72   31.60
  -3  -1   9  864.51   39.20
   2   1  -9  815.42   30.90
  -2  -1   9  814.52   38.20
  -2  -1   9  729.33   29.60
   1   1  -9   67.09    8.60
   1   1  -9   65.09   12.60
  -1  -1   9   94.19   17.70
  -1  -1   9   74.99   11.90
   0   1  -9 1132.69   33.60
   0   1  -9 1116.09   40.40
   0  -1   9 1078.19   44.30
   0  -1   9 1079.59   37.10
  -1   1  -9  396.56   21.80
  -1   1  -9  375.66   26.40
   1  -1   9  455.75   30.80
  -2   1  -9   11.30    9.90
  -2   1  -9   12.20   11.50
   2  -1   9   21.40   14.10
   2  -1   9   23.20    6.00
  -3   1  -9  508.05   31.00
  -3   1  -9  460.45   32.90
   3  -1   9  523.45   34.70
  -4   1  -9  524.85   35.60
  -4   1  -9  485.45   34.00
   4  -1   9  488.55   35.90
  -5   1  -9  284.27   29.80
  -5   1  -9  326.67   32.20
   5  -1   9  301.77   30.50
  -6   1  -9  154.38   26.10
  -6   1  -9  190.68   28.30
  -7   1  -9  161.98   26.80
  -7   1  -9  217.68   34.00
  -8   1  -9   40.30   22.80
  -8   1  -9   69.89   22.90
 -11   0   9  276.17   33.00
 -11   0   9  229.98   36.40
 -10   0   9   23.00   13.90
 -10   0   9   11.10   15.90
   9   0  -9  142.09   23.10
  -9   0   9   99.19   21.40
  -9   0   9  124.29   21.90
   8   0  -9  553.94   31.70
  -8   0   9  600.64   34.60
  -8   0   9  693.03   41.60
   7   0  -9   50.49   13.70
  -7   0   9   39.40   12.10
  -7   0   9   52.79   16.70
   6   0  -9   67.99   14.20
  -6   0   9   75.99   13.20
  -6   0   9   79.19   18.00
   5   0  -9  625.84   31.10
  -5   0   9  678.03   35.80
  -5   0   9  673.93   28.70
   4   0  -9  407.76   20.20
   4   0  -9  367.56   25.10
  -4   0   9  382.16   27.50
  -4   0   9  359.46   20.40
   3   0  -9    7.40    8.30
   3   0  -9    6.60   10.00
  -3   0   9    1.10    6.70
  -3   0   9   -5.70    9.90
   2   0  -9 1340.27   42.60
   2   0  -9 1302.77   47.60
  -2   0   9 1346.17   38.30
  -2   0   9 1370.26   49.20
   1   0  -9 1136.49   31.00
   1   0  -9 1111.29   39.80
  -1   0   9 1136.79   34.30
  -1   0   9 1068.79   43.20
   0   0  -9   29.40   11.40
   0   0  -9   11.60    7.60
   0   0   9   15.00   12.30
  -1   0  -9  215.28   21.50
  -1   0  -9  241.98   19.50
   1   0   9  184.88   23.70
   1   0   9  228.58   14.70
  -2   0  -9  685.83   33.50
  -2   0  -9  706.43   36.30
   2   0   9  707.53   37.80
   2   0   9  633.04   21.50
  -3   0  -9   38.40   15.70
  -3   0  -9   21.70   12.30
   3   0   9   18.10   12.60
  -4   0  -9  288.57   28.30
  -4   0  -9  209.98   27.50
   4   0   9  236.48   29.10
  -5   0  -9  599.44   39.80
  -5   0  -9  609.24   41.10
  -6   0  -9  165.08   30.20
  -6   0  -9  134.99   24.70
  -7   0  -9    3.90   16.60
  -7   0  -9  -12.80   15.80
  -8   0  -9  216.78   37.30
  -8   0  -9  160.18   27.40
  -8   0  -9  107.39   25.70
 -11   1   9   32.00   18.40
 -11   1   9   82.99   19.70
 -10   1   9  326.87   35.20
 -10   1   9  295.27   28.60
   9  -1  -9   91.99   17.30
  -9   1   9   71.99   18.20
  -9   1   9   76.49   15.80
   8  -1  -9  101.69   17.90
  -8   1   9   98.09   17.20
  -8   1   9   88.19   19.30
   7  -1  -9  458.45   29.60
  -7   1   9  461.65   26.10
  -7   1   9  476.25   33.90
   6  -1  -9  397.26   27.70
  -6   1   9  403.06   29.30
  -6   1   9  406.06   22.50
   5  -1  -9    1.30    9.60
  -5   1   9   -2.00   10.10
  -5   1   9   -6.80    6.20
   4  -1  -9  573.24   26.20
   4  -1  -9  591.54   30.00
  -4   1   9  591.84   22.10
  -4   1   9  522.75   30.40
   3  -1  -9 1097.79   42.20
   3  -1  -9 1105.89   38.20
  -3   1   9 1062.59   42.60
  -3   1   9 1129.59   31.10
   2  -1  -9   20.00   10.00
   2  -1  -9   21.40    5.90
   2  -1  -9   26.20   11.30
  -2   1   9   11.80   11.50
  -2   1   9   13.80    6.00
   1  -1  -9  982.20   31.60
   1  -1  -9 1031.90   39.30
  -1   1   9 1047.60   35.80
  -1   1   9  957.00   41.40
   0  -1  -9 1597.04   46.70
   0  -1  -9 1563.84   51.29
   0   1   9 1542.65   44.50
   0   1   9 1635.44   54.59
  -1  -1  -9  398.26   25.00
  -1  -1  -9  504.15   30.70
   1   1   9  428.06   19.70
   1   1   9  412.56   29.40
  -2  -1  -9   89.09   18.10
  -2  -1  -9  136.09   21.20
   2   1   9  130.59   22.50
   2   1   9  117.99   11.10
  -3  -1  -9  867.81   41.60
  -3  -1  -9  920.41   43.50
   3   1   9  864.51   42.80
  -4  -1  -9  206.18   28.30
  -4  -1  -9  204.58   27.70
  -5  -1  -9   -6.40   14.20
  -5  -1  -9   14.40   17.20
  -6  -1  -9  206.28   33.10
  -6  -1  -9  119.09   24.00
  -6  -1  -9  113.29   21.10
  -7  -1  -9  102.29   20.90
  -7  -1  -9   76.29   22.90
  -7  -1  -9  106.59   26.70
  -8  -1  -9  -17.50   17.80
  -8  -1  -9    3.00   16.90
  -8  -1  -9   26.80   23.20
 -11   2   9   82.79   22.80
  10  -2  -9   32.90   15.70
 -10   2   9   43.80   14.00
 -10   2   9    6.30   13.20
   9  -2  -9  271.27   27.80
  -9   2   9  321.27   24.80
  -9   2   9  349.57   32.80
   8  -2  -9  318.87   26.90
  -8   2   9  349.47   24.00
  -8   2   9  390.16   30.90
   7  -2  -9   21.20   12.70
  -7   2   9   -5.20   11.40
  -7   2   9    3.40    8.00
   6  -2  -9  418.16   28.30
  -6   2   9  432.26   28.70
  -6   2   9  395.86   18.00
  -6   2   9  392.96   20.20
   5  -2  -9  524.25   30.20
  -5   2   9  520.35   20.00
  -5   2   9  513.95   29.50
   4  -2  -9   37.60   13.40
  -4   2   9   31.00   11.90
  -4   2   9   36.40    6.40
   3  -2  -9  175.08   12.00
   3  -2  -9  234.38   22.50
   3  -2  -9  180.48   18.80
   3  -2  -9  173.68    8.60
  -3   2   9  193.78   22.90
  -3   2   9  222.78   20.70
  -3   2   9  204.88    9.40
   2  -2  -9 1488.75   33.60
   2  -2  -9 1399.56   40.30
   2  -2  -9 1490.05   48.60
   2  -2  -9 1542.25   51.39
  -2   2   9 1542.05   51.69
  -2   2   9 1500.65   47.60
   1  -2  -9  926.41   38.30
   1  -2  -9  854.11   32.10
   1  -2  -9  882.31   37.80
  -1   2   9  907.41   37.90
  -1   2   9  891.91   33.40
   0  -2  -9   25.00   10.50
   0  -2  -9   27.20   13.00
   0   2   9   38.50    9.70
   0   2   9   51.89   13.90
  -1  -2  -9  661.13   33.10
  -1  -2  -9  624.94   34.70
   1   2   9  686.03   35.70
   1   2   9  633.84   25.40
  -2  -2  -9  433.86   29.60
  -2  -2  -9  436.56   29.80
   2   2   9  416.76   31.10
   2   2   9  420.96   19.50
  -3  -2  -9  -10.10   13.10
  -3  -2  -9    5.70   13.20
   3   2   9   -3.60   13.10
  -4  -2  -9  172.28   28.60
  -4  -2  -9  198.28   28.70
  -4  -2  -9  221.18   22.70
  -5  -2  -9  303.17   32.40
  -5  -2  -9  247.58   33.70
  -5  -2  -9  296.27   27.40
  -6  -2  -9   23.90   18.30
  -6  -2  -9   -8.90   13.00
  -6  -2  -9   12.10   19.00
  -7  -2  -9  139.99   30.80
  -7  -2  -9  105.19   24.90
  -7  -2  -9  103.29   22.90
  11  -3  -9  200.38   27.40
 -11   3   9  212.88   32.00
 -11   3   9  197.98   29.20
  10  -3  -9  232.38   27.70
 -10   3   9  214.28   28.60
 -10   3   9  184.98   29.30
   9  -3  -9   24.00   14.50
  -9   3   9   13.70   14.60
  -9   3   9   26.50   13.60
   8  -3  -9  333.77   28.20
  -8   3   9  331.37   23.60
  -8   3   9  271.37   27.90
  -8   3   9  333.57   29.10
   7  -3  -9  529.05   33.40
  -7   3   9  511.55   23.70
  -7   3   9  561.84   32.80
  -7   3   9  540.95   35.80
   6  -3  -9   74.09   16.40
  -6   3   9   62.59   14.40
  -6   3   9   59.09   14.80
  -6   3   9   53.99    8.70
   5  -3  -9  334.67   26.50
  -5   3   9  311.67   26.60
  -5   3   9  303.87   23.50
  -5   3   9  327.27   13.40
   4  -3  -9  633.54   33.00
  -4   3   9  586.94   32.60
  -4   3   9  639.04   32.00
   3  -3  -9  232.58   16.70
   3  -3  -9  255.57   23.80
   3  -3  -9  237.88   21.30
  -3   3   9  229.88   21.70
  -3   3   9  240.38   21.80
   2  -3  -9   20.80   11.80
   2  -3  -9   26.40    9.30
   2  -3  -9   37.50   12.10
  -2   3   9   19.60   10.80
  -2   3   9   26.30   11.70
   1  -3  -9  592.44   31.90
   1  -3  -9  578.04   28.30
   1  -3  -9  591.54   17.70
   1  -3  -9  591.54   31.20
  -1   3   9  575.14   28.30
  -1   3   9  613.04   31.90
   0  -3  -9  773.82   35.80
   0  -3  -9  780.02   25.50
   0  -3  -9  792.92   36.90
   0  -3  -9  780.92   37.60
   0   3   9  719.63   35.40
   0   3   9  781.32   31.20
  -1  -3  -9   16.60   13.80
  -1  -3  -9   15.40    7.40
  -1  -3  -9   10.80   11.70
   1   3   9   12.80    8.40
   1   3   9    9.30   11.60
  -2  -3  -9  565.94   35.30
  -2  -3  -9  529.35   27.00
  -2  -3  -9  516.95   34.20
   2   3   9  558.24   34.80
   2   3   9  502.65   23.50
  -3  -3  -9  635.94   32.00
  -3  -3  -9  605.14   39.20
  -3  -3  -9  598.14   37.90
  -4  -3  -9   80.59   21.60
  -4  -3  -9   68.49   16.30
  -4  -3  -9   56.29   18.00
  -5  -3  -9   50.59   15.80
  -5  -3  -9   51.69   19.80
  -5  -3  -9   17.20   20.10
  -6  -3  -9  273.47   33.10
  -6  -3  -9  223.38   36.40
  -6  -3  -9  225.58   29.60
  -7  -3  -9  130.59   24.70
  -7  -3  -9  115.59   30.00
  -7  -3  -9  127.99   25.10
  11  -4  -9   -6.90   13.30
 -11   4   9    3.30   13.40
 -11   4   9    3.60   15.10
  10  -4  -9  104.39   21.60
 -10   4   9  100.29   19.70
 -10   4   9  153.28   26.00
   9  -4  -9  327.07   30.70
  -9   4   9  346.17   30.10
  -9   4   9  371.36   34.40
   8  -4  -9   52.39   16.00
  -8   4   9   83.09   16.40
  -8   4   9   80.29   20.40
   7  -4  -9  112.49   19.40
  -7   4   9  130.39   19.60
  -7   4   9  132.19   22.10
   6  -4  -9  448.66   31.40
  -6   4   9  529.55   29.20
  -6   4   9  481.75   32.90
   5  -4  -9  323.57   27.10
  -5   4   9  289.37   24.40
  -5   4   9  315.27   23.70
   4  -4  -9    6.10   10.40
  -4   4   9    5.90   11.00
  -4   4   9    6.40   10.40
   3  -4  -9  230.08   19.60
   3  -4  -9  215.38   22.30
   3  -4  -9  187.68   21.90
  -3   4   9  213.58   21.50
  -3   4   9  240.58   21.60
   2  -4  -9  757.72   36.00
   2  -4  -9  681.33   32.10
   2  -4  -9  734.33   35.50
  -2   4   9  714.23   33.40
  -2   4   9  739.63   33.00
   1  -4  -9   58.89   14.00
   1  -4  -9   59.19   14.50
   1  -4  -9   90.79   15.90
  -1   4   9   98.39   17.10
  -1   4   9   90.49   15.20
   0  -4  -9  296.67   26.80
   0  -4  -9  250.97   23.20
   0  -4  -9  281.97   25.40
   0  -4  -9  256.37   15.30
   0   4   9  276.87   23.70
   0   4   9  266.07   20.70
  -1  -4  -9  620.64   32.80
  -1  -4  -9  593.14   25.70
  -1  -4  -9  628.74   36.60
  -1  -4  -9  592.44   35.70
   1   4   9  599.04   34.50
   1   4   9  588.64   28.10
  -2  -4  -9   99.59   21.30
  -2  -4  -9   78.59   18.60
  -2  -4  -9   93.69   17.30
  -2  -4  -9   75.99   13.70
   2   4   9   82.99   13.60
  -3  -4  -9   72.19   19.10
  -3  -4  -9   35.50   13.10
  -3  -4  -9   62.29   19.50
  -3  -4  -9   48.20   15.20
  -4  -4  -9  307.77   27.50
  -4  -4  -9  334.47   35.30
  -4  -4  -9  316.57   32.60
  -5  -4  -9  191.58   31.60
  -5  -4  -9  125.29   26.40
  -5  -4  -9  191.98   25.70
  -6  -4  -9   35.30   16.80
  -6  -4  -9    6.40   20.30
  -6  -4  -9   13.50   17.10
  11  -5  -9  115.59   23.50
 -11   5   9  135.29   24.60
  10  -5  -9  109.39   22.60
 -10   5   9   75.79   20.70
   9  -5  -9   17.80   15.30
  -9   5   9   48.00   14.30
  -9   5   9   34.60   17.60
   8  -5  -9  464.25   33.10
  -8   5   9  496.65   30.20
  -8   5   9  496.35   34.60
   7  -5  -9  266.27   27.70
  -7   5   9  293.27   23.80
  -7   5   9  261.77   28.10
   6  -5  -9    9.70   13.30
  -6   5   9    8.00   13.50
  -6   5   9    6.70    9.80
   5  -5  -9  222.08   24.50
  -5   5   9  196.38   22.30
  -5   5   9  236.28   22.10
   4  -5  -9  257.97   21.80
   4  -5  -9  281.37   24.70
  -4   5   9  309.77   22.80
  -4   5   9  311.57   25.10
   3  -5  -9   90.89   16.70
   3  -5  -9   66.79   14.20
   3  -5  -9   61.49   14.60
  -3   5   9   70.39   13.60
  -3   5   9   42.30   14.00
   2  -5  -9  443.46   28.90
   2  -5  -9  428.66   29.80
   2  -5  -9  406.76   28.70
  -2   5   9  404.86   27.20
  -2   5   9  441.06   25.80
   1  -5  -9  343.47   26.50
   1  -5  -9  322.67   26.30
   1  -5  -9  354.36   28.40
  -1   5   9  316.37   23.70
  -1   5   9  331.07   24.60
   0  -5  -9   26.70   14.50
   0  -5  -9   46.00   15.80
   0  -5  -9   54.39   14.60
   0   5   9   62.79   13.40
   0   5   9   46.90   13.50
  -1  -5  -9  220.38   22.00
  -1  -5  -9  179.38   26.30
  -1  -5  -9  177.08   26.00
   1   5   9  218.58   20.40
  -2  -5  -9  300.47   30.30
  -2  -5  -9  288.27   33.30
  -2  -5  -9  273.57   24.30
   2   5   9  236.48   23.10
  -3  -5  -9  123.99   25.80
  -3  -5  -9  156.08   24.10
  -3  -5  -9  119.69   22.10
  -4  -5  -9   17.10   13.90
  -4  -5  -9   15.60   17.90
  -4  -5  -9   15.50   15.20
  -5  -5  -9  216.98   36.70
  -5  -5  -9  216.98   32.50
  -5  -5  -9  227.28   30.50
  -6  -5  -9  128.29   23.60
  -6  -5  -9  120.29   30.80
  11  -6  -9   21.00   16.60
 -11   6   9    6.20   15.20
  10  -6  -9  141.89   25.30
 -10   6   9  122.79   24.60
   9  -6  -9  200.38   28.60
  -9   6   9  138.09   23.60
   8  -6  -9   13.40   15.10
  -8   6   9   11.20   15.10
   7  -6  -9  150.08   23.80
  -7   6   9  147.79   23.00
   6  -6  -9  553.14   36.20
  -6   6   9  597.94   37.50
   5  -6  -9  147.69   23.00
  -5   6   9  141.69   20.90
  -5   6   9  155.98   18.30
   4  -6  -9  163.98   24.10
   4  -6  -9  200.98   23.20
  -4   6   9  175.38   18.30
  -4   6   9  228.98   25.50
   3  -6  -9 1490.25   54.29
   3  -6  -9 1421.26   52.49
  -3   6   9 1400.36   44.90
  -3   6   9 1374.76   52.89
   2  -6  -9  165.98   24.70
   2  -6  -9   80.19   17.60
   2  -6  -9  143.89   21.10
  -2   6   9   99.29   17.00
  -2   6   9   95.89   17.50
   1  -6  -9   61.89   17.20
   1  -6  -9   59.29   16.80
   1  -6  -9   48.00   13.90
  -1   6   9   55.99   13.20
  -1   6   9   46.70   14.30
   0  -6  -9  345.37   30.60
   0  -6  -9  421.46   28.30
   0  -6  -9  324.57   32.10
   0   6   9  367.06   26.50
  -1  -6  -9  129.19   20.50
  -1  -6  -9  109.09   23.00
  -1  -6  -9  159.68   26.30
   1   6   9  127.09   20.40
  -2  -6  -9    8.80   15.00
  -2  -6  -9    2.60   15.90
  -3  -6  -9  226.98   34.50
  -3  -6  -9  303.07   32.00
  -4  -6  -9  135.99   28.60
  -4  -6  -9  206.08   29.70
  -5  -6  -9   35.90   15.90
  -5  -6  -9  -23.40   17.30
  11  -7  -9   97.49   24.30
 -11   7   9  140.29   25.60
  10  -7  -9   12.00   14.80
 -10   7   9    8.60   14.10
   9  -7  -9   78.09   20.70
  -9   7   9   74.99   19.50
   8  -7  -9  277.57   31.40
  -8   7   9  300.67   31.60
   7  -7  -9  105.89   21.80
  -7   7   9  117.59   22.40
   6  -7  -9   56.09   17.70
  -6   7   9   51.99   15.70
   5  -7  -9  459.05   33.70
  -5   7   9  442.46   32.20
   4  -7  -9  280.87   27.40
   4  -7  -9  293.87   29.20
  -4   7   9  277.67   28.20
   3  -7  -9   45.80   14.90
   3  -7  -9   31.40   15.00
  -3   7   9   74.29   16.90
   2  -7  -9  267.67   29.30
   2  -7  -9  284.27   26.90
  -2   7   9  260.67   26.50
   1  -7  -9  263.47   25.10
   1  -7  -9  234.38   29.50
   1  -7  -9  222.68   27.20
  -1   7   9  209.68   25.00
   0  -7  -9   -2.80   10.70
   0  -7  -9    0.30   14.40
   0  -7  -9   11.50   13.90
   0   7   9   10.70   13.00
  -1  -7  -9  101.59   22.30
  -1  -7  -9  114.99   21.80
   1   7   9   93.29   18.60
  -2  -7  -9  201.28   30.30
  -2  -7  -9  181.98   30.40
  -3  -7  -9   -8.10   13.80
  -3  -7  -9   18.00   19.70
  -4  -7  -9   22.80   21.70
  -4  -7  -9   36.20   17.40
  10  -8  -9   61.59   20.30
 -10   8   9   76.99   21.50
   9  -8  -9   84.89   24.00
  -9   8   9   95.19   21.00
   8  -8  -9   17.30   15.70
  -8   8   9    4.90   15.20
   7  -8  -9  182.28   28.40
  -7   8   9  241.88   30.50
   6  -8  -9  125.39   23.30
  -6   8   9   88.99   19.80
   5  -8  -9    1.00   12.90
  -5   8   9   29.80   15.70
   4  -8  -9  189.18   27.40
   4  -8  -9  196.68   25.40
  -4   8   9  153.28   26.20
   3  -8  -9  200.78   24.70
   3  -8  -9  199.38   28.70
  -3   8   9  151.28   25.50
   2  -8  -9    5.00   12.10
   2  -8  -9    1.70   15.60
  -2   8   9  -28.80   11.50
   1  -8  -9  171.88   22.80
   1  -8  -9  102.09   23.30
  -1   8   9  148.59   25.50
   0  -8  -9  339.47   32.90
   0  -8  -9  260.67   35.50
   0   8   9  332.17   30.30
  -1  -8  -9   57.09   22.10
  -1  -8  -9   87.79   19.50
   1   8   9   63.99   18.60
  -2  -8  -9   29.00   16.50
  -2  -8  -9   10.80   19.80
  -3  -8  -9  156.58   29.00
  -3  -8  -9  120.19   22.40
  10  -9  -9   27.90   20.40
 -10   9   9   20.60   17.90
   9  -9  -9  141.39   26.70
  -9   9   9  176.68   29.20
   8  -9  -9   77.69   21.60
  -8   9   9  105.19   24.80
   7  -9  -9   -5.50   13.50
  -7   9   9   -5.60   13.10
   6  -9  -9   78.89   20.10
  -6   9   9   99.79   22.70
   5  -9  -9  112.99   21.70
  -5   9   9  103.89   23.20
   4  -9  -9  -11.70   13.40
   4  -9  -9   12.10   16.20
  -4   9   9   -4.80   13.80
   3  -9  -9  111.29   23.30
   3  -9  -9  169.78   25.50
  -3   9   9  124.19   23.50
   2  -9  -9  149.49   24.10
   2  -9  -9  152.18   27.50
  -2   9   9  156.68   26.70
   1  -9  -9  102.49   24.40
  -1   9   9   25.50   16.70
   0  -9  -9    7.80   17.70
   0   9   9   15.50   16.20
  -1  -9  -9  122.89   27.50
   1   9   9   79.09   21.90
  -2  -9  -9   57.39   22.50
  -2  -9  -9   82.19   20.20
   9 -10  -9   25.40   18.90
  -9  10   9    0.50   16.70
   8 -10  -9  101.79   24.80
  -8  10   9   76.49   23.40
   7 -10  -9  220.88   31.90
  -7  10   9  183.98   31.10
   6 -10  -9   -8.60   14.10
  -6  10   9  -11.10   15.20
   5 -10  -9   71.29   19.50
  -5  10   9   51.59   19.70
   4 -10  -9  235.98   35.40
   4 -10  -9  189.08   26.60
  -4  10   9  181.48   30.90
   3 -10  -9   50.79   17.50
   3 -10  -9   78.39   23.30
  -3  10   9   97.99   22.70
   2 -10  -9   -4.30   18.20
  -2  10   9   -1.70   17.00
   1 -10  -9   38.30   22.30
  -1  10   9   87.59   21.40
   0 -10  -9   54.19   24.50
   0  10   9   -6.50   16.40
   8 -11  -9   12.60   15.70
  -8  11   9  -18.10   15.70
   7 -11  -9   59.99   19.10
  -7  11   9   30.00   19.40
   6 -11  -9  112.49   24.30
  -6  11   9  138.89   27.70
   5 -11  -9   46.80   19.20
  -5  11   9   64.79   22.30
   4 -11  -9  -16.00   13.20
   4 -11  -9   33.70   20.80
  -4  11   9   13.60   17.10
   3 -11  -9  119.09   26.70
  -3  11   9   84.79   24.20
   2 -11  -9   11.10   22.30
  -2  11   9   68.09   21.90
   1  11 -10   15.70   17.70
  -1 -11  10  -17.90   21.50
   0  11 -10   77.29   22.40
   0 -11  10   58.89   25.20
  -1  11 -10   93.89   23.20
   1 -11  10   27.30   23.00
  -2  11 -10   10.90   17.70
   2 -11  10   -4.80   18.60
  -3  11 -10   36.40   18.50
   3 -11  10   35.90   21.70
   4 -11  10   68.09   24.70
   3  10 -10    7.40   18.90
  -3 -10  10  -26.90   19.70
   2  10 -10  103.69   24.80
  -2 -10  10  130.99   28.90
   1  10 -10  102.09   23.90
  -1 -10  10   74.29   25.00
   0  10 -10    8.00   16.20
   0 -10  10   11.90   19.40
  -1  10 -10    4.50   15.70
   1 -10  10    5.10   19.80
  -2  10 -10  164.18   28.80
   2 -10  10  148.69   28.30
  -3  10 -10   48.40   17.60
   3 -10  10    3.80   18.20
  -4  10 -10   18.40   15.60
   4 -10  10   14.80   19.90
  -5  10 -10   62.99   18.70
  -6  10 -10   33.50   18.00
  -4  -9  10   70.39   25.20
  -4  -9  10  161.88   29.10
   3   9 -10  205.68   31.50
  -3  -9  10  168.08   30.00
  -3  -9  10  203.78   32.00
   2   9 -10   32.00   19.10
  -2  -9  10   51.09   21.40
  -2  -9  10   32.70   19.50
   1   9 -10   91.69   21.40
  -1  -9  10   96.59   24.40
  -1  -9  10   82.59   22.60
   0   9 -10  104.89   22.10
   0  -9  10  112.29   23.90
   0  -9  10  100.39   23.90
  -1   9 -10  160.48   26.30
   1  -9  10  108.89   23.30
   1  -9  10  159.28   29.40
  -2   9 -10    4.90   14.40
   2  -9  10   38.20   20.10
   2  -9  10   -8.00   14.50
  -3   9 -10  167.08   25.10
  -3   9 -10  185.28   26.50
   3  -9  10  179.88   28.70
   3  -9  10  225.08   33.90
  -4   9 -10  162.38   24.50
   4  -9  10  197.78   32.70
  -5   9 -10  -16.10   14.50
  -6   9 -10   57.59   21.60
  -7   9 -10  105.79   26.10
  -7   9 -10   97.89   25.30
  -6  -8  10   20.70   21.00
  -6  -8  10   38.00   21.40
  -5  -8  10   98.59   25.50
  -5  -8  10   92.89   24.80
  -4  -8  10    7.30   18.50
  -4  -8  10   25.70   16.80
   3   8 -10  -11.60   15.00
  -3  -8  10  -13.80   16.10
  -3  -8  10   12.60   16.80
   2   8 -10  191.98   26.90
  -2  -8  10  171.78   30.60
  -2  -8  10  178.48   31.40
   1   8 -10  106.09   20.70
  -1  -8  10   94.79   21.90
  -1  -8  10  126.39   24.50
   0   8 -10   -1.00   13.50
   0  -8  10   32.70   17.10
   0  -8  10  -15.60   15.40
  -1   8 -10  329.87   29.10
   1  -8  10  327.47   35.20
   1  -8  10  303.67   35.30
  -2   8 -10  175.48   24.60
  -2   8 -10  196.28   23.40
   2  -8  10  230.28   31.50
   2  -8  10  151.08   26.60
  -3   8 -10    7.00   13.00
  -3   8 -10    2.60   11.60
   3  -8  10   19.50   15.90
   3  -8  10    7.90   14.90
  -4   8 -10   90.19   19.70
   4  -8  10  151.68   27.10
  -5   8 -10   90.19   21.00
   5  -8  10  138.19   24.80
  -6   8 -10   49.40   19.60
  -6   8 -10   32.70   19.30
   6  -8  10   32.10   17.60
  -7   8 -10   28.40   19.90
  -7   8 -10   22.10   18.50
  -7  -7  10  100.19   27.00
  -7  -7  10  150.18   29.40
  -6  -7  10   50.39   21.10
  -6  -7  10   12.20   17.40
  -5  -7  10   19.30   18.60
  -5  -7  10   13.90   18.50
  -4  -7  10  130.89   25.30
  -4  -7  10   91.89   22.10
  -3  -7  10  147.29   26.50
  -3  -7  10  131.59   24.40
   2   7 -10   -1.70   14.50
  -2  -7  10  -16.10   14.10
  -2  -7  10   18.90   16.70
   1   7 -10  200.98   26.40
  -1  -7  10  247.68   30.60
  -1  -7  10  244.68   31.10
   0   7 -10  344.87   28.60
   0  -7  10  288.97   32.40
   0  -7  10  275.97   32.80
  -1   7 -10   38.80   14.50
  -1   7 -10   42.40   13.20
   1  -7  10   35.70   17.90
   1  -7  10   32.70   18.00
  -2   7 -10  362.36   27.50
  -2   7 -10  429.96   28.80
   2  -7  10  323.37   33.70
   2  -7  10  399.56   34.10
  -3   7 -10  387.76   29.60
  -3   7 -10  349.17   25.10
   3  -7  10  392.86   36.20
   3  -7  10  327.17   32.90
  -4   7 -10   45.00   16.00
   4  -7  10   57.79   18.60
  -5   7 -10   50.79   18.70
  -5   7 -10   33.00   15.40
   5  -7  10   30.40   17.00
  -6   7 -10  176.18   29.70
  -6   7 -10  209.28   30.90
   6  -7  10  275.57   34.60
  -7   7 -10  111.29   26.70
  -7   7 -10  116.69   25.70
  -8   7 -10    9.70   19.80
  -8   7 -10   13.20   18.50
  -7  -6  10   46.10   21.30
  -7  -6  10   48.30   20.80
  -6  -6  10  176.28   31.40
  -6  -6  10  199.78   31.50
  -5  -6  10  169.28   27.20
  -5  -6  10  218.78   31.70
  -4  -6  10   -8.80   13.90
  -4  -6  10    3.40   15.00
  -3  -6  10  278.27   30.90
  -3  -6  10  303.37   32.10
  -2  -6  10  454.55   36.20
  -2  -6  10  495.35   37.30
  -1  -6  10   36.50   16.60
  -1  -6  10   50.39   17.30
   0   6 -10  263.57   24.80
   0   6 -10  243.78   21.20
   0  -6  10  244.98   30.10
   0  -6  10  208.48   26.10
  -1   6 -10  564.34   30.30
  -1   6 -10  567.74   30.90
   1  -6  10  536.35   38.40
   1  -6  10  545.65   38.10
  -2   6 -10   70.39   15.60
  -2   6 -10   64.59   13.80
   2  -6  10   58.39   18.40
   2  -6  10   44.30   17.70
  -3   6 -10   44.40   15.50
   3  -6  10   42.80   17.10
   3  -6  10   59.99   18.60
  -4   6 -10  216.68   27.60
  -4   6 -10  265.57   28.80
   4  -6  10  236.88   30.30
  -5   6 -10  132.59   23.70
  -5   6 -10  125.49   23.40
   5  -6  10  112.99   23.90
  -6   6 -10  -11.50   14.50
  -6   6 -10  -10.20   14.20
   6  -6  10   27.30   16.60
  -7   6 -10  158.98   28.00
  -7   6 -10  180.08   30.60
  -8   6 -10  111.49   27.10
  -8   6 -10  153.58   28.40
  -8  -5  10  111.09   25.50
  -8  -5  10  116.69   26.10
  -7  -5  10  101.19   23.40
  -7  -5  10   97.49   23.90
  -6  -5  10    5.70   15.40
  -6  -5  10    6.80   15.00
  -5  -5  10  239.08   29.70
  -5  -5  10  253.07   31.20
   4   5 -10  570.14   31.20
  -4  -5  10  624.74   39.00
  -4  -5  10  655.53   41.60
  -3  -5  10  204.18   27.90
  -3  -5  10  193.58   25.90
  -2  -5  10  154.78   26.20
  -2  -5  10   87.59   18.40
   1   5 -10  509.45   25.90
  -1  -5  10  426.06   32.70
  -1  -5  10  519.15   36.70
   0   5 -10  252.27   21.10
   0  -5  10  253.67   28.20
   0  -5  10  258.87   30.30
  -1   5 -10   55.89   13.80
   1  -5  10   50.49   17.10
   1  -5  10   82.89   20.70
  -2   5 -10  518.35   32.00
   2  -5  10  454.95   33.90
   2  -5  10  546.85   38.60
  -3   5 -10  247.68   26.40
  -3   5 -10  259.07   26.00
   3  -5  10  269.87   30.30
  -4   5 -10    3.70   14.40
  -4   5 -10    9.70   13.00
   4  -5  10   17.10   16.50
  -5   5 -10  277.47   30.90
  -5   5 -10  200.18   27.50
   5  -5  10  271.77   33.50
  -6   5 -10  244.78   31.20
  -6   5 -10  261.37   32.90
   6  -5  10  282.97   33.20
  -7   5 -10    7.20   16.40
  -7   5 -10   23.30   19.70
  -8   5 -10   37.20   22.10
  -8   5 -10   54.59   22.10
  -9  -4  10  103.69   25.40
  -9  -4  10  130.29   26.20
  -8  -4  10  -18.30   14.70
  -8  -4  10   -3.70   16.40
  -7  -4  10   81.19   20.70
  -7  -4  10   52.59   20.40
  -6  -4  10  214.08   30.50
  -6  -4  10  233.88   28.30
   5   4 -10   58.69   13.40
  -5  -4  10   39.20   16.30
  -5  -4  10   51.69   17.30
   4   4 -10  170.08   20.20
  -4  -4  10  160.78   25.70
  -4  -4  10  180.48   26.90
  -3  -4  10  744.43   41.60
  -3  -4  10  750.22   38.70
   2   4 -10  141.89   15.90
  -2  -4  10  147.99   22.20
  -2  -4  10  119.09   21.10
   1   4 -10   70.29   13.30
  -1  -4  10   54.89   16.90
  -1  -4  10   73.29   16.30
   0   4 -10  485.85   27.70
   0  -4  10  432.06   34.10
   0  -4  10  462.95   31.00
  -1   4 -10  932.81   34.80
  -1   4 -10  824.42   37.10
   1  -4  10  820.62   40.20
   1  -4  10  869.41   44.60
  -2   4 -10  123.99   18.90
  -2   4 -10  152.58   19.80
   2  -4  10  149.79   23.30
   2  -4  10  110.69   19.10
  -3   4 -10  129.29   19.90
  -3   4 -10  154.88   20.80
   3  -4  10  172.18   26.70
  -4   4 -10  405.46   32.80
  -4   4 -10  351.26   29.80
   4  -4  10  348.07   35.00
  -5   4 -10   -8.20   14.30
  -5   4 -10   12.20   13.40
   5  -4  10    7.00   15.90
  -6   4 -10   54.59   20.10
  -6   4 -10   68.99   21.80
   6  -4  10  100.99   22.90
  -7   4 -10  264.17   34.40
  -7   4 -10  216.88   33.90
  -8   4 -10   54.69   21.70
  -8   4 -10   87.99   24.70
  -9  -3  10   67.89   19.60
  -9  -3  10   74.99   22.50
  -8  -3  10  199.38   27.70
  -8  -3  10  188.98   31.40
  -7  -3  10  124.99   23.90
  -7  -3  10  181.28   25.90
   6   3 -10   54.79   13.30
  -6  -3  10   58.19   17.90
  -6  -3  10   61.89   16.50
   5   3 -10  627.24   32.10
  -5  -3  10  700.63   41.20
  -5  -3  10  634.14   35.50
   4   3 -10  589.04   31.30
  -4  -3  10  460.95   35.00
  -4  -3  10  506.95   31.00
   3   3 -10   82.49   12.70
   3   3 -10   89.39   17.70
  -3  -3  10   79.99   16.60
  -3  -3  10  100.49   16.90
   2   3 -10  513.35   24.90
  -2  -3  10  495.25   29.50
  -2  -3  10  545.45   35.30
   1   3 -10  359.46   23.40
   1   3 -10  346.77   16.00
  -1  -3  10  376.76   32.00
  -1  -3  10  411.56   27.60
   0   3 -10   49.99    9.90
   0   3 -10   57.19   12.90
   0  -3  10   52.89   13.70
   0  -3  10   25.40   14.90
  -1   3 -10  291.77   25.50
  -1   3 -10  274.47   20.20
   1  -3  10  289.77   27.20
   1  -3  10  309.17   25.20
  -2   3 -10  653.33   32.20
  -2   3 -10  683.13   35.30
   2  -3  10  666.43   38.40
  -3   3 -10  294.67   27.80
  -3   3 -10  255.47   24.60
   3  -3  10  203.48   28.20
  -4   3 -10  124.69   22.50
  -4   3 -10  142.69   24.60
   4  -3  10  113.39   22.60
  -5   3 -10  325.47   30.80
  -5   3 -10  313.37   30.80
   5  -3  10  313.27   34.10
  -6   3 -10  274.57   32.20
  -6   3 -10  248.08   32.40
  -7   3 -10    5.10   15.70
  -7   3 -10    2.10   16.00
  -8   3 -10  112.49   26.30
  -8   3 -10  163.18   31.10
 -10  -2  10  123.69   26.70
 -10  -2  10  155.18   26.80
  -9  -2  10    7.40   16.20
  -9  -2  10   61.59   19.30
  -8  -2  10   17.70   14.40
  -8  -2  10    8.80   15.30
   7   2 -10  640.14   32.00
  -7  -2  10  641.84   36.70
  -7  -2  10  629.54   42.40
   6   2 -10  341.97   24.50
  -6  -2  10  306.47   26.00
  -6  -2  10  330.37   31.90
   5   2 -10   -7.10    9.20
  -5  -2  10   -6.60    9.50
  -5  -2  10   -9.70   12.60
   4   2 -10  700.33   33.70
   4   2 -10  626.84   23.30
  -4  -2  10  595.94   37.00
  -4  -2  10  647.74   32.30
   3   2 -10  297.97   18.40
   3   2 -10  244.88   24.60
  -3  -2  10  234.78   26.50
  -3  -2  10  281.07   22.20
   2   2 -10   46.40   11.50
  -2  -2  10   36.80   15.50
  -2  -2  10   62.09   12.80
   1   2 -10  173.58   11.00
   1   2 -10  176.38   18.60
  -1  -2  10  180.68   19.90
  -1  -2  10  168.98   23.60
   0   2 -10  820.62   35.00
   0   2 -10  764.42   27.20
   0  -2  10  792.12   33.60
   0  -2  10  716.83   40.60
  -1   2 -10  283.17   24.70
  -1   2 -10  266.07   19.60
   1  -2  10  305.17   29.00
  -2   2 -10   -4.40   11.20
  -2   2 -10   15.10   10.30
   2  -2  10   20.60   15.10
  -3   2 -10  451.25   29.60
  -3   2 -10  422.76   30.60
   3  -2  10  411.06   34.30
  -4   2 -10  355.76   30.20
  -4   2 -10  311.37   28.20
   4  -2  10  335.87   33.90
  -5   2 -10   -7.00   15.20
  -5   2 -10   -0.20   14.00
   5  -2  10   56.29   18.60
  -6   2 -10  378.56   34.90
  -6   2 -10  385.76   35.90
  -7   2 -10  220.58   33.10
  -7   2 -10  173.98   30.00
  -8   2 -10    5.40   19.80
  -8   2 -10  -18.10   18.90
 -10  -1  10   -4.40   15.50
 -10  -1  10  -10.30   12.90
  -9  -1  10  141.79   27.20
  -9  -1  10  164.78   25.70
   8   1 -10  326.07   25.70
  -8  -1  10  330.27   33.80
  -8  -1  10  361.96   29.10
   7   1 -10   12.30   11.00
  -7  -1  10   19.50   15.20
  -7  -1  10    2.40   11.10
   6   1 -10  635.64   31.90
  -6  -1  10  619.94   31.80
  -6  -1  10  511.05   36.30
   5   1 -10 1426.46   49.60
  -5  -1  10 1373.66   54.99
  -5  -1  10 1301.97   45.40
   4   1 -10   98.19   16.50
   4   1 -10   98.39   13.20
  -4  -1  10  122.09   21.90
  -4  -1  10   97.39   16.60
   3   1 -10  114.89   18.80
   3   1 -10   86.39   12.90
  -3  -1  10  114.09   16.20
  -3  -1  10  105.79   18.80
   2   1 -10  542.35   27.60
  -2  -1  10  584.34   34.10
  -2  -1  10  603.34   27.40
   1   1 -10  117.79   10.50
   1   1 -10  107.39   18.10
  -1  -1  10  128.09   20.70
  -1  -1  10  143.69   16.00
   0   1 -10  155.38   20.70
   0   1 -10   98.79   12.50
   0  -1  10   88.69   17.30
  -1   1 -10  456.55   30.00
  -1   1 -10  433.46   24.00
   1  -1  10  459.75   32.70
  -2   1 -10  401.56   30.40
  -2   1 -10  415.56   26.50
   2  -1  10  369.26   17.00
   2  -1  10  369.76   30.10
  -3   1 -10   12.80   14.30
  -3   1 -10   -6.40   10.90
   3  -1  10    9.80   14.70
  -4   1 -10  387.76   31.40
  -4   1 -10  345.27   33.30
   4  -1  10  431.16   34.10
  -5   1 -10  840.72   48.30
  -5   1 -10  845.62   47.00
   5  -1  10  912.91   50.89
  -6   1 -10    6.00   17.70
  -6   1 -10   31.40   19.20
  -7   1 -10    8.60   19.40
  -7   1 -10   30.10   18.50
  -8   1 -10  164.58   29.00
  -8   1 -10  149.69   29.80
 -11   0  10  158.78   26.20
 -11   0  10  165.28   30.70
 -10   0  10  192.08   31.60
 -10   0  10  185.38   26.30
   9   0 -10    1.60   11.60
  -9   0  10    0.10   11.90
  -9   0  10    5.60   14.40
   8   0 -10  156.78   22.70
  -8   0  10  156.38   20.90
  -8   0  10  149.19   26.40
   7   0 -10  261.57   23.80
  -7   0  10  264.07   23.10
  -7   0  10  255.17   29.30
   6   0 -10  230.78   23.20
  -6   0  10  253.67   27.60
  -6   0  10  282.57   21.10
   5   0 -10   61.79   14.60
  -5   0  10   53.99   15.80
  -5   0  10   89.09   15.40
   4   0 -10  743.73   36.40
   4   0 -10  807.02   30.90
  -4   0  10  819.82   40.20
  -4   0  10  843.52   30.50
   3   0 -10  422.46   24.20
   3   0 -10  391.76   28.30
  -3   0  10  402.76   21.20
  -3   0  10  415.66   30.00
   2   0 -10  130.49   22.20
   2   0 -10  149.99   18.50
  -2   0  10  120.79   14.30
  -2   0  10  191.88   25.30
   1   0 -10 1303.17   45.20
   1   0 -10 1229.48   34.50
  -1   0  10 1258.67   38.60
  -1   0  10 1281.67   50.49
   0   0 -10  963.60   33.20
   0   0 -10  968.20   40.60
   0   0  10  991.30   44.00
  -1   0 -10   22.00   14.50
  -1   0 -10   40.30   11.50
   1   0  10   46.80   16.60
   1   0  10   33.60    8.20
  -2   0 -10  377.36   30.30
  -2   0 -10  338.77   25.30
   2   0  10  398.96   32.40
   2   0  10  362.36   17.80
  -3   0 -10  507.75   35.10
  -3   0 -10  481.95   33.30
   3   0  10  405.16   32.30
  -4   0 -10   53.69   17.20
  -4   0 -10   84.09   19.10
   4   0  10   30.20   15.50
  -5   0 -10  198.68   29.50
  -5   0 -10  143.89   23.80
  -6   0 -10  306.17   35.90
  -6   0 -10  337.17   37.20
  -7   0 -10   92.19   24.70
  -7   0 -10   65.99   23.00
  -8   0 -10   10.40   16.50
  -8   0 -10  -17.40   17.40
  -8   0 -10    0.70   19.80
 -11   1  10   32.20   19.70
 -10   1  10   86.89   23.30
 -10   1  10   81.69   20.60
   9  -1 -10  270.17   27.10
  -9   1  10  288.57   32.00
  -9   1  10  269.87   25.40
   8  -1 -10  105.59   19.10
  -8   1  10  128.89   18.20
  -8   1  10   96.29   19.80
   7  -1 -10   47.70   14.40
  -7   1  10   55.29   16.80
  -7   1  10   47.20   11.50
   6  -1 -10  469.35   29.90
  -6   1  10  451.75   23.50
  -6   1  10  407.56   31.20
   5  -1 -10  492.85   30.40
  -5   1  10  510.85   23.10
  -5   1  10  485.55   31.90
   4  -1 -10    3.90   12.00
   4  -1 -10    4.00    8.70
  -4   1  10   24.20   12.80
  -4   1  10    6.90    6.80
   3  -1 -10  634.94   34.30
   3  -1 -10  658.13   30.60
  -3   1  10  653.63   35.90
  -3   1  10  658.23   23.10
   2  -1 -10  982.60   42.60
   2  -1 -10  934.81   27.50
   2  -1 -10 1017.70   39.00
  -2   1  10  982.60   29.30
  -2   1  10  985.00   43.10
   1  -1 -10   18.70   12.40
   1  -1 -10   17.10    8.30
  -1   1  10   10.70   12.80
  -1   1  10   18.00    9.10
   0  -1 -10  590.04   33.10
   0  -1 -10  564.44   26.70
   0   1  10  589.74   34.50
   0   1  10  599.84   25.60
  -1  -1 -10  768.62   38.60
  -1  -1 -10  703.33   33.40
   1   1  10  713.53   39.40
   1   1  10  730.73   27.30
  -2  -1 -10   18.30   14.40
  -2  -1 -10   26.20   13.00
   2   1  10   13.60   13.80
  -3  -1 -10  388.36   32.60
  -3  -1 -10  315.67   29.40
   3   1  10  319.47   31.90
  -4  -1 -10  456.35   36.80
  -4  -1 -10  491.05   37.10
   4   1  10  453.95   37.20
  -5  -1 -10  198.38   30.80
  -5  -1 -10  165.88   30.10
  -6  -1 -10   29.40   18.90
  -6  -1 -10   32.00   15.90
  -6  -1 -10    4.80   17.40
  -7  -1 -10  152.58   29.60
  -7  -1 -10  200.48   34.60
  -7  -1 -10  175.68   27.60
 -11   2  10  236.68   33.10
  10  -2 -10   91.19   19.90
 -10   2  10  109.09   22.50
   9  -2 -10   10.60   13.60
  -9   2  10   24.50   15.80
   8  -2 -10  351.76   29.50
  -8   2  10  350.16   33.90
  -8   2  10  354.26   31.40
   7  -2 -10  235.48   25.50
  -7   2  10  289.77   27.30
  -7   2  10  282.47   19.40
   6  -2 -10   14.90   13.30
  -6   2  10    0.10   11.10
  -6   2  10    8.10    7.40
   5  -2 -10  415.26   27.50
  -5   2  10  356.76   27.80
  -5   2  10  394.36   17.90
   4  -2 -10  486.05   27.10
   4  -2 -10  604.24   33.80
  -4   2  10  461.05   31.00
  -4   2  10  522.45   18.00
   3  -2 -10   34.00    7.00
   3  -2 -10   49.60   12.70
   3  -2 -10   18.70   11.50
  -3   2  10    0.40   12.00
  -3   2  10   26.50   11.60
   2  -2 -10  448.36   21.50
   2  -2 -10  531.65   30.40
   2  -2 -10  476.75   29.40
  -2   2  10  467.85   27.50
  -2   2  10  493.55   31.10
   1  -2 -10  872.41   39.80
   1  -2 -10  983.80   41.90
   1  -2 -10  949.31   34.80
  -1   2  10  977.20   36.30
  -1   2  10 1001.50   42.60
   0  -2 -10  429.96   26.30
   0  -2 -10  391.36   27.90
   0   2  10  395.16   29.40
   0   2  10  386.26   22.20
  -1  -2 -10   42.40   13.60
  -1  -2 -10   72.59   17.90
   1   2  10   39.40    9.70
   1   2  10   77.29   18.10
  -2  -2 -10  978.60   46.30
  -2  -2 -10 1029.30   45.70
   2   2  10 1054.29   48.40
  -3  -2 -10  408.86   33.60
  -3  -2 -10  431.76   34.70
   3   2  10  442.96   35.60
  -4  -2 -10    4.30   14.90
  -4  -2 -10   -0.90   15.40
  -4  -2 -10   -6.20   10.20
  -5  -2 -10  182.88   24.00
  -5  -2 -10  174.28   32.00
  -5  -2 -10  189.58   31.60
  -6  -2 -10  147.59   27.10
  -6  -2 -10  161.48   31.00
  -6  -2 -10  136.09   23.50
  -7  -2 -10   12.50   17.30
  -7  -2 -10   14.90   20.50
  -7  -2 -10   31.90   16.80
  11  -3 -10   20.90   13.70
 -11   3  10    5.00   15.50
 -11   3  10   48.50   18.40
  10  -3 -10  314.77   30.70
 -10   3  10  348.07   34.00
 -10   3  10  231.68   30.70
   9  -3 -10  234.48   27.60
  -9   3  10  300.77   32.40
  -9   3  10  229.88   29.20
   8  -3 -10    7.20   13.20
  -8   3  10   -1.20   11.10
  -8   3  10    7.60   14.90
   7  -3 -10  468.25   33.00
  -7   3  10  420.46   32.20
  -7   3  10  442.16   31.50
   6  -3 -10  578.34   35.70
  -6   3  10  654.53   38.20
  -6   3  10  725.33   36.70
   5  -3 -10   89.69   17.50
  -5   3  10   55.29   16.10
  -5   3  10   63.99   15.20
   4  -3 -10  112.69   18.80
   4  -3 -10   84.49   15.60
  -4   3  10   58.89   15.60
  -4   3  10   79.79   16.60
   3  -3 -10  271.07   18.40
   3  -3 -10  373.16   26.00
   3  -3 -10  314.27   25.30
  -3   3  10  333.07   24.70
  -3   3  10  312.37   26.60
   2  -3 -10  489.05   25.30
   2  -3 -10  577.84   31.30
   2  -3 -10  568.04   32.60
  -2   3  10  518.85   31.10
  -2   3  10  518.95   29.30
   1  -3 -10   -0.20   12.20
   1  -3 -10    3.90   10.30
   1  -3 -10   15.40   12.50
  -1   3  10    2.80   11.00
  -1   3  10   11.80    9.80
   0  -3 -10  375.36   29.80
   0  -3 -10  396.16   18.60
   0  -3 -10  460.45   31.80
   0  -3 -10  435.56   28.60
   0   3  10  397.36   29.40
   0   3  10  443.26   24.70
  -1  -3 -10  359.46   29.00
  -1  -3 -10  432.06   31.50
  -1  -3 -10  424.26   30.80
  -1  -3 -10  397.66   21.30
   1   3  10  368.76   30.10
   1   3  10  404.26   22.20
  -2  -3 -10   -7.10   12.50
  -2  -3 -10  -12.50    8.30
  -2  -3 -10   10.60   14.60
   2   3  10   14.50   14.10
  -3  -3 -10  162.68   20.40
  -3  -3 -10  172.48   27.10
  -3  -3 -10  126.89   21.50
  -4  -3 -10  276.27   32.50
  -4  -3 -10  215.78   24.70
  -4  -3 -10  227.58   32.00
  -5  -3 -10   10.70   18.00
  -5  -3 -10   23.20   14.80
  -5  -3 -10   -9.60   15.80
  -6  -3 -10  137.19   24.20
  -6  -3 -10  137.89   25.70
  -6  -3 -10   85.49   25.70
  11  -4 -10  157.98   25.00
 -11   4  10  143.39   26.70
 -11   4  10  105.19   23.60
  10  -4 -10   14.20   15.90
 -10   4  10  -10.10   12.90
 -10   4  10    5.90   15.90
   9  -4 -10  184.08   27.40
  -9   4  10  171.38   29.40
  -9   4  10  197.78   26.00
   8  -4 -10  425.66   33.60
  -8   4  10  465.15   32.10
  -8   4  10  457.05   36.80
   7  -4 -10    2.40   14.00
  -7   4  10   27.20   12.70
  -7   4  10   23.00   13.60
   6  -4 -10  180.68   24.70
  -6   4  10  186.08   25.40
  -6   4  10  159.58   22.20
   5  -4 -10  280.17   27.50
  -5   4  10  345.57   27.30
  -5   4  10  391.66   29.20
   4  -4 -10    6.30   11.30
  -4   4  10   14.10   12.40
  -4   4  10   17.80   12.50
   3  -4 -10  -16.20   10.10
   3  -4 -10    3.20    9.10
   3  -4 -10   10.00   12.90
  -3   4  10   15.20   11.40
  -3   4  10    2.00   10.60
   2  -4 -10  543.55   33.00
   2  -4 -10  579.94   29.90
   2  -4 -10  538.45   33.20
  -2   4  10  522.25   30.20
  -2   4  10  562.84   30.60
   1  -4 -10  616.54   34.80
   1  -4 -10  654.23   35.20
   1  -4 -10  575.64   31.70
  -1   4  10  659.63   34.70
  -1   4  10  568.04   30.20
   0  -4 -10   52.69   14.80
   0  -4 -10   55.69   16.30
   0  -4 -10   41.10   14.60
   0   4  10   46.00   11.90
   0   4  10   32.00   13.90
  -1  -4 -10  325.67   28.40
  -1  -4 -10  364.16   31.70
  -1  -4 -10  354.36   28.30
   1   4  10  385.16   24.10
   1   4  10  385.76   29.40
  -2  -4 -10  372.76   33.00
  -2  -4 -10  354.46   32.70
  -2  -4 -10  341.87   29.60
  -3  -4 -10   38.00   16.00
  -3  -4 -10   31.30   17.70
  -3  -4 -10   43.40   17.10
  -3  -4 -10   23.20   16.60
  -4  -4 -10   72.49   20.00
  -4  -4 -10   59.39   17.50
  -4  -4 -10   49.99   20.40
  -5  -4 -10  183.68   31.10
  -5  -4 -10  298.27   42.10
  -5  -4 -10  315.67   34.30
  -6  -4 -10   80.49   26.90
  -6  -4 -10   40.20   19.40
  11  -5 -10   48.20   16.80
 -11   5  10   27.10   18.90
  10  -5 -10  224.38   30.50
 -10   5  10  195.58   29.90
   9  -5 -10   28.30   16.60
  -9   5  10   25.10   16.40
  -9   5  10   10.30   13.30
   8  -5 -10  159.18   25.40
  -8   5  10  174.78   22.00
  -8   5  10  169.08   26.20
   7  -5 -10  544.85   36.80
  -7   5  10  475.45   30.30
  -7   5  10  495.05   36.00
   6  -5 -10  265.17   28.60
  -6   5  10  289.27   26.00
  -6   5  10  321.17   30.00
   5  -5 -10   38.40   15.10
  -5   5  10   86.09   18.40
  -5   5  10   27.00   13.20
   4  -5 -10  458.25   32.10
   4  -5 -10  444.36   26.70
  -4   5  10  495.75   28.40
  -4   5  10  473.05   32.10
   3  -5 -10  806.72   40.20
   3  -5 -10  808.32   39.70
   3  -5 -10  753.12   35.90
  -3   5  10  855.11   40.10
  -3   5  10  869.81   37.00
   2  -5 -10    4.30   13.00
   2  -5 -10    7.50   12.20
   2  -5 -10    6.60   11.40
  -2   5  10    4.90   10.30
  -2   5  10    4.10   10.80
   1  -5 -10  151.08   23.10
   1  -5 -10  146.29   22.40
   1  -5 -10  168.78   25.20
  -1   5  10  163.08   20.10
  -1   5  10  127.99   20.70
   0  -5 -10  464.55   34.30
   0  -5 -10  402.86   31.80
   0  -5 -10  441.76   31.00
   0   5  10  421.06   28.80
   0   5  10  441.96   28.00
  -1  -5 -10   39.30   14.40
  -1  -5 -10   27.60   16.10
  -1  -5 -10   64.09   17.50
   1   5  10   35.20   12.00
  -2  -5 -10   26.30   13.50
  -2  -5 -10    9.20   14.30
  -2  -5 -10   42.50   18.60
  -3  -5 -10  274.07   31.10
  -3  -5 -10  227.18   33.30
  -4  -5 -10   93.39   21.80
  -4  -5 -10   91.59   24.40
  -5  -5 -10    9.40   19.70
  -5  -5 -10    3.00   15.20
  11  -6 -10   61.59   19.80
 -11   6  10   41.40   19.70
  10  -6 -10   29.60   18.20
 -10   6  10   19.80   17.10
   9  -6 -10  139.69   25.70
  -9   6  10  117.59   22.90
   8  -6 -10  208.48   29.00
  -8   6  10  232.58   30.00
   7  -6 -10    3.60   14.00
  -7   6  10    5.60   14.10
   6  -6 -10  282.07   30.00
  -6   6  10  212.58   28.20
   5  -6 -10  627.94   38.30
  -5   6  10  577.84   39.70
  -5   6  10  612.04   37.80
   4  -6 -10  146.19   21.90
   4  -6 -10   87.09   17.10
  -4   6  10  122.29   21.40
  -4   6  10  130.59   18.90
   3  -6 -10  191.38   24.70
   3  -6 -10  183.68   24.40
  -3   6  10  234.28   21.20
  -3   6  10  194.68   24.30
   2  -6 -10  335.37   29.40
   2  -6 -10  368.16   30.80
   2  -6 -10  382.06   31.40
  -2   6  10  376.06   28.30
  -2   6  10  354.96   24.90
   1  -6 -10  105.59   18.50
   1  -6 -10   95.69   19.40
   1  -6 -10   94.09   20.20
  -1   6  10  131.49   20.30
  -1   6  10  111.09   18.30
   0  -6 -10   68.09   16.90
   0  -6 -10  106.99   22.30
   0  -6 -10  103.59   20.90
   0   6  10   87.69   17.20
  -1  -6 -10  307.97   27.50
  -1  -6 -10  357.96   35.50
  -1  -6 -10  377.86   34.30
   1   6  10  289.07   25.80
  -2  -6 -10  133.79   27.00
  -2  -6 -10  184.18   29.40
  -3  -6 -10   20.20   18.00
  -3  -6 -10   29.00   16.30
  -4  -6 -10  176.38   30.40
  -4  -6 -10   85.59   25.00
  11  -7 -10  118.29   25.00
 -11   7  10   98.49   24.20
  10  -7 -10   91.39   23.50
 -10   7  10   52.49   19.20
   9  -7 -10   -5.10   14.80
  -9   7  10    3.70   13.60
   8  -7 -10  107.39   23.40
  -8   7  10   77.89   19.80
   7  -7 -10  239.18   30.10
  -7   7  10  303.97   32.60
   6  -7 -10    3.10   13.80
  -6   7  10   42.50   16.30
   5  -7 -10  103.59   21.50
  -5   7  10   34.10   15.50
   4  -7 -10  271.17   29.10
   4  -7 -10  338.27   30.30
  -4   7  10  349.87   31.80
   3  -7 -10  184.18   26.20
   3  -7 -10  131.49   24.00
  -3   7  10  152.08   24.00
   2  -7 -10   32.20   15.80
   2  -7 -10    4.20   14.50
   2  -7 -10   16.20   13.20
  -2   7  10   31.90   15.30
   1  -7 -10  264.47   27.90
   1  -7 -10  310.97   32.40
   1  -7 -10  303.07   28.10
  -1   7  10  283.77   28.30
   0  -7 -10  237.18   30.10
   0  -7 -10  185.78   29.40
   0  -7 -10  224.88   25.10
   0   7  10  258.47   27.20
  -1  -7 -10   20.60   16.20
  -1  -7 -10   -8.80   15.80
   1   7  10   -0.80   15.20
  -2  -7 -10  124.39   23.30
  -2  -7 -10  106.09   25.50
  -3  -7 -10  144.99   29.30
  -3  -7 -10  127.59   25.40
  10  -8 -10   23.00   18.80
 -10   8  10   50.59   21.40
   9  -8 -10  145.99   27.50
  -9   8  10  129.79   25.70
   8  -8 -10   82.39   22.10
  -8   8  10   91.89   22.10
   7  -8 -10   -2.80   15.50
  -7   8  10   -8.30   14.30
   6  -8 -10  168.28   27.20
  -6   8  10  126.39   24.10
   5  -8 -10   89.19   21.30
  -5   8  10  102.59   21.00
   4  -8 -10    7.40   13.60
   4  -8 -10    9.10   14.60
  -4   8  10   11.00   15.30
   3  -8 -10  299.77   32.80
   3  -8 -10  323.77   31.00
  -3   8  10  280.37   30.50
   2  -8 -10  107.19   24.30
   2  -8 -10  195.88   24.70
  -2   8  10  175.18   26.20
   1  -8 -10   25.20   13.20
   1  -8 -10  -26.10   15.40
  -1   8  10   18.40   13.80
   0  -8 -10  144.79   24.80
   0  -8 -10   63.89   23.10
   0   8  10  144.89   24.50
  -1  -8 -10  165.48   28.60
  -1  -8 -10  218.88   34.50
  -2  -8 -10   24.80   20.20
  -2  -8 -10   27.00   16.30
   9  -9 -10   28.70   19.30
  -9   9  10   13.80   17.90
   8  -9 -10  139.29   27.10
  -8   9  10   48.50   19.70
   7  -9 -10  123.09   24.80
  -7   9  10   78.19   22.40
   6  -9 -10  -27.10   13.10
  -6   9  10    4.00   15.20
   5  -9 -10   69.89   19.80
  -5   9  10   88.09   21.40
   4  -9 -10   73.09   21.40
   4  -9 -10  119.29   23.00
  -4   9  10   95.69   22.40
   3  -9 -10   -9.00   15.10
   3  -9 -10  -14.00   12.50
  -3   9  10  -37.10   11.80
   2  -9 -10   94.69   24.00
   2  -9 -10  148.89   24.30
  -2   9  10  125.89   23.00
   1  -9 -10  275.87   35.20
  -1   9  10  149.29   25.40
   0  -9 -10  -13.50   17.90
   0   9  10    7.10   16.10
  -1  -9 -10  -16.90   18.60
  -1  -9 -10    8.50   15.70
   8 -10 -10   11.70   18.20
  -8  10  10   -1.40   18.00
   7 -10 -10  201.28   31.40
  -7  10  10  121.99   24.90
   6 -10 -10  124.69   24.40
  -6  10  10  114.49   25.90
   5 -10 -10    2.10   16.00
  -5  10  10   20.20   17.50
   4 -10 -10   50.39   20.60
   4 -10 -10   26.60   18.00
  -4  10  10   19.20   17.80
   3 -10 -10  103.19   21.90
   3 -10 -10  107.49   25.80
  -3  10  10  129.39   24.80
   2 -10 -10   17.40   19.90
  -2  10  10    3.00   17.00
   1 -10 -10   34.00   23.00
  -1  10  10   -2.20   15.40
   0 -10 -10  123.59   30.20
   0  10  10   93.19   23.50
   6 -11 -10   13.60   17.30
  -6  11  10   15.00   18.90
   5 -11 -10  141.59   26.00
  -5  11  10  138.19   27.80
   4 -11 -10   59.39   19.30
   4 -11 -10   42.30   22.50
  -4  11  10   70.49   21.80
   3 -11 -10   24.10   19.10
  -3  11  10   -3.60   18.30
  -1  11 -11   91.99   23.00
   1 -11  11   90.29   27.30
  -2  11 -11   97.19   23.30
   2 -11  11   60.29   23.40
   3 -11  11    7.10   20.30
   2  10 -11   -0.20   16.50
  -2 -10  11   13.50   18.20
   1  10 -11  107.49   24.30
  -1 -10  11   62.19   25.70
   0  10 -11   81.19   21.80
   0 -10  11   71.29   25.80
  -1  10 -11   40.60   17.80
   1 -10  11   48.50   23.20
  -2  10 -11   70.19   20.30
   2 -10  11   59.99   23.30
   3 -10  11  109.49   28.10
  -4  10 -11   41.50   17.90
   4 -10  11   82.69   22.20
  -5  10 -11    8.30   16.20
  -4  -9  11  -17.60   18.70
  -4  -9  11  -11.00   17.20
  -3  -9  11   45.50   22.90
  -3  -9  11   40.00   23.20
   2   9 -11  136.99   25.60
  -2  -9  11  164.38   30.30
  -2  -9  11  106.19   26.20
   1   9 -11   38.40   19.80
  -1  -9  11  -15.80   18.70
  -1  -9  11    1.90   17.30
   0   9 -11    5.20   15.00
   0  -9  11  -10.10   15.70
   0  -9  11   -0.80   17.60
  -1   9 -11  151.98   25.50
   1  -9  11  151.18   26.40
   1  -9  11  132.29   26.00
  -2   9 -11   34.80   15.20
   2  -9  11   55.79   20.60
   2  -9  11   28.00   17.40
  -3   9 -11   10.40   15.10
   3  -9  11   13.10   19.10
   3  -9  11  -14.20   15.20
  -4   9 -11  115.29   21.50
   4  -9  11  182.28   32.00
  -5   9 -11   29.10   18.10
  -6   9 -11   33.40   18.50
  -6   9 -11   15.20   17.70
  -5  -8  11   53.59   20.50
  -5  -8  11   74.49   24.90
  -4  -8  11   55.19   23.20
  -4  -8  11   36.00   20.00
  -3  -8  11    2.30   19.50
  -3  -8  11    3.40   15.80
  -2  -8  11  110.59   25.10
  -2  -8  11   36.40   19.80
   1   8 -11  245.58   30.10
  -1  -8  11  217.78   35.60
  -1  -8  11  224.38   35.00
   0   8 -11   97.69   20.70
   0  -8  11  100.69   24.50
   0  -8  11   85.29   22.70
  -1   8 -11  -11.70   11.70
   1  -8  11  -22.50   14.40
   1  -8  11   13.00   16.70
  -2   8 -11  137.39   23.20
  -2   8 -11  119.99   19.90
   2  -8  11  150.88   25.30
   2  -8  11  105.69   23.00
  -3   8 -11  121.19   21.00
   3  -8  11  184.58   31.20
   3  -8  11  134.59   24.10
  -4   8 -11    1.40   14.80
   4  -8  11   16.30   15.00
  -5   8 -11   46.40   18.90
  -5   8 -11   36.50   18.40
   5  -8  11   33.40   18.50
  -6   8 -11  172.18   29.30
  -6   8 -11   52.29   22.20
   6  -8  11  109.59   23.60
  -7   8 -11   24.30   19.40
  -7   8 -11  -13.70   17.30
   7  -8  11   38.20   24.60
  -6  -7  11  126.49   26.80
  -6  -7  11  120.99   26.70
  -5  -7  11   40.00   20.30
  -5  -7  11   38.90   20.70
  -4  -7  11    3.50   17.60
  -4  -7  11   27.30   18.20
  -3  -7  11  273.67   33.70
  -3  -7  11  300.87   34.70
  -2  -7  11  234.88   31.90
  -2  -7  11  230.58   32.70
  -1  -7  11    8.50   17.20
  -1  -7  11  -16.10   16.50
   0  -7  11  231.08   31.50
   0  -7  11  249.88   33.40
  -1   7 -11  140.29   21.80
  -1   7 -11  152.78   21.70
   1  -7  11  163.28   26.90
   1  -7  11  100.69   22.40
  -2   7 -11    1.20   12.10
   2  -7  11   -2.10   15.20
   2  -7  11    8.10   14.90
  -3   7 -11   92.89   19.20
   3  -7  11  193.88   30.80
   3  -7  11   79.59   21.00
  -4   7 -11  257.97   29.30
  -4   7 -11  238.38   29.70
   4  -7  11  254.87   31.20
  -5   7 -11   47.80   16.90
  -5   7 -11   39.80   18.20
   5  -7  11   27.40   18.40
  -6   7 -11   24.00   18.90
  -6   7 -11    9.50   16.40
   6  -7  11   43.50   18.40
  -7   7 -11  135.19   27.10
  -7   7 -11  167.58   29.70
  -7  -6  11   13.70   18.80
  -7  -6  11   10.30   19.60
  -6  -6  11   -1.80   17.90
  -6  -6  11   14.20   18.20
  -5  -6  11  192.58   32.20
  -5  -6  11  204.08   31.20
  -4  -6  11  194.18   29.90
  -4  -6  11  172.98   28.60
  -3  -6  11   13.30   15.70
  -3  -6  11    1.80   15.60
  -2  -6  11  144.59   24.20
  -2  -6  11  135.39   24.30
  -1  -6  11  295.27   34.40
  -1  -6  11  260.47   31.60
   0   6 -11   -5.30   10.20
   0  -6  11   -4.30   14.70
   0  -6  11  -20.80   15.00
  -1   6 -11  366.16   26.20
   1  -6  11  350.96   35.00
   1  -6  11  347.07   33.00
  -2   6 -11  334.17   28.10
   2  -6  11  399.96   35.40
   2  -6  11  350.76   33.20
  -3   6 -11  142.69   24.40
  -3   6 -11   97.29   18.50
   3  -6  11  100.59   22.30
  -4   6 -11   37.80   16.00
  -4   6 -11   17.40   16.60
   4  -6  11   60.89   19.10
  -5   6 -11  153.48   25.50
  -5   6 -11  123.19   24.20
   5  -6  11  201.28   32.60
  -6   6 -11   92.29   22.70
  -6   6 -11   91.39   23.70
   6  -6  11   98.89   23.00
  -7   6 -11   34.60   17.20
  -7   6 -11  -16.70   17.20
  -8   6 -11   69.89   24.90
  -8   6 -11   64.99   25.50
  -8  -5  11   21.90   18.20
  -8  -5  11   -8.80   17.40
  -7  -5  11  105.49   23.50
  -7  -5  11   95.99   23.60
  -6  -5  11  110.99   24.80
  -6  -5  11   94.29   22.30
  -5  -5  11  -11.70   14.40
  -5  -5  11    5.10   14.90
   4   5 -11  178.58   23.10
  -4  -5  11  215.58   28.00
  -4  -5  11  211.58   29.80
  -3  -5  11  653.13   42.70
  -3  -5  11  632.24   38.60
  -2  -5  11  235.08   28.20
  -2  -5  11  209.38   30.20
   1   5 -11  108.79   17.90
  -1  -5  11   71.79   18.20
  -1  -5  11  135.29   23.80
   0   5 -11  632.74   32.50
   0  -5  11  571.94   40.50
   0  -5  11  666.43   39.40
  -1   5 -11  180.18   21.40
   1  -5  11  145.59   25.00
   1  -5  11  146.79   25.30
  -2   5 -11  137.99   22.00
  -2   5 -11  150.48   20.10
   2  -5  11  156.28   24.30
   2  -5  11  124.39   23.60
  -3   5 -11  412.36   32.40
  -3   5 -11  507.05   32.80
   3  -5  11  419.66   36.50
  -4   5 -11  116.39   21.70
  -4   5 -11  148.69   25.20
   4  -5  11   99.69   22.10
  -5   5 -11   13.50   16.10
  -5   5 -11   11.70   14.60
   5  -5  11   37.40   20.20
  -6   5 -11  125.49   26.70
  -6   5 -11  176.48   29.50
   6  -5  11  199.78   30.50
  -7   5 -11  136.49   27.30
  -7   5 -11  104.79   25.90
  -8   5 -11    5.80   19.70
  -8   5 -11    9.80   20.00
  -9  -4  11   99.59   27.10
  -9  -4  11  137.39   27.50
  -8  -4  11   99.79   23.60
  -8  -4  11   86.09   23.50
  -7  -4  11   22.20   17.40
  -7  -4  11   24.40   17.70
  -6  -4  11   59.39   18.50
  -6  -4  11   69.39   20.40
   5   4 -11  181.68   21.60
  -5  -4  11  182.88   27.40
  -5  -4  11  185.68   29.30
   4   4 -11   65.29   16.40
  -4  -4  11   85.39   20.20
  -4  -4  11   86.59   17.90
  -3  -4  11  138.59   20.70
  -3  -4  11  172.68   28.40
   2   4 -11  716.93   30.50
  -2  -4  11  693.63   42.70
  -2  -4  11  688.53   37.50
   1   4 -11  397.76   25.50
  -1  -4  11  364.16   34.20
  -1  -4  11  390.36   31.00
   0   4 -11   53.79   14.00
   0   4 -11   49.90   11.40
   0  -4  11   22.40   15.40
   0  -4  11   41.90   16.10
  -1   4 -11  861.11   39.60
  -1   4 -11  884.51   35.30
   1  -4  11  856.01   46.20
   1  -4  11  912.61   43.50
  -2   4 -11  383.26   25.90
  -2   4 -11  398.26   30.30
   2  -4  11  359.06   34.10
  -3   4 -11  -13.50   13.00
  -3   4 -11    6.10   10.70
   3  -4  11   10.60   14.90
  -4   4 -11  262.97   27.90
  -4   4 -11  273.47   30.40
   4  -4  11  221.38   32.50
  -5   4 -11  117.39   23.40
  -5   4 -11  152.08   26.30
   5  -4  11  102.49   22.80
  -6   4 -11   77.69   21.00
  -6   4 -11   58.09   19.70
   6  -4  11   60.39   21.70
  -7   4 -11   79.69   22.90
  -7   4 -11   59.89   22.10
  -8   4 -11  110.89   26.50
  -8   4 -11  105.49   25.80
  -9  -3  11   -5.30   16.10
  -9  -3  11   -0.20   16.50
  -8  -3  11   14.60   15.90
  -8  -3  11   15.50   18.50
  -7  -3  11  339.37   35.40
  -7  -3  11  282.87   30.90
   6   3 -11   18.90   11.40
  -6  -3  11   21.30   13.70
  -6  -3  11   13.70   15.50
   5   3 -11   97.39   17.60
  -5  -3  11   91.49   20.70
  -5  -3  11  113.89   19.10
   4   3 -11  640.24   35.40
  -4  -3  11  688.73   41.50
  -4  -3  11  646.94   34.60
   3   3 -11  147.49   16.20
   3   3 -11  145.79   23.70
  -3  -3  11  190.18   27.70
  -3  -3  11  163.98   22.30
   2   3 -11   35.50   11.60
  -2  -3  11   28.90   15.10
  -2  -3  11   39.10   14.00
   1   3 -11  663.93   32.10
  -1  -3  11  702.13   35.70
  -1  -3  11  603.44   40.50
   0   3 -11  750.72   36.30
   0   3 -11  766.92   28.30
   0  -3  11  768.52   43.80
   0  -3  11  728.53   36.50
  -1   3 -11   10.70   13.10
  -1   3 -11    8.00    8.80
   1  -3  11    6.80   11.50
   1  -3  11    0.40   15.60
  -2   3 -11  269.07   22.70
  -2   3 -11  284.67   27.50
   2  -3  11  203.48   27.40
  -3   3 -11  506.95   32.30
  -3   3 -11  505.15   35.50
   3  -3  11  547.35   39.60
  -4   3 -11   13.00   15.90
  -4   3 -11   13.10   13.70
   4  -3  11   42.60   19.00
  -5   3 -11   20.60   15.20
  -5   3 -11    3.90   16.40
   5  -3  11   43.30   19.60
  -6   3 -11  402.56   36.70
  -6   3 -11  475.55   38.90
   6  -3  11  391.36   40.40
  -7   3 -11   90.49   24.30
  -7   3 -11  129.19   27.70
  -8   3 -11    6.40   20.90
  -8   3 -11   11.00   18.50
 -10  -2  11   94.69   22.50
 -10  -2  11   97.49   25.60
  -9  -2  11  218.38   34.90
  -9  -2  11  226.88   28.70
  -8  -2  11  180.98   27.60
  -8  -2  11  192.38   32.00
   7   2 -11  160.38   20.60
  -7  -2  11   96.19   19.00
  -7  -2  11  140.79   24.70
   6   2 -11  433.16   28.40
  -6  -2  11  396.86   35.60
  -6  -2  11  394.36   29.40
   5   2 -11  387.76   28.70
  -5  -2  11  293.27   31.50
  -5  -2  11  398.66   28.20
   4   2 -11   12.20    7.60
   4   2 -11    0.70   11.00
  -4  -2  11   -4.50   11.80
  -4  -2  11  -13.70    9.30
   3   2 -11  214.68   25.60
   3   2 -11  227.58   18.40
  -3  -2  11  233.68   22.40
  -3  -2  11  203.38   25.10
   2   2 -11  173.58   20.40
  -2  -2  11  196.08   27.80
  -2  -2  11  229.58   22.30
   1   2 -11   43.20   13.00
  -1  -2  11   42.60   12.40
  -1  -2  11   28.80   16.10
   0   2 -11  412.96   27.80
   0   2 -11  358.46   19.50
   0  -2  11  401.96   34.10
   0  -2  11  346.77   25.70
  -1   2 -11  585.04   34.50
  -1   2 -11  593.54   27.70
   1  -2  11  546.55   38.50
  -2   2 -11  572.44   35.70
  -2   2 -11  617.34   31.20
   2  -2  11  528.75   36.50
  -3   2 -11    7.40   15.40
  -3   2 -11    3.80   11.50
   3  -2  11   17.60   15.80
  -4   2 -11  431.46   32.60
  -4   2 -11  455.55   37.40
   4  -2  11  385.26   37.10
  -5   2 -11  294.37   31.70
  -5   2 -11  316.77   36.00
   5  -2  11  402.06   36.90
  -6   2 -11  -11.10   13.70
  -6   2 -11    6.00   18.70
  -7   2 -11  127.29   29.40
  -7   2 -11  159.48   28.70
  -8   2 -11  105.59   29.60
  -8   2 -11  135.69   29.90
 -10  -1  11   80.49   20.50
 -10  -1  11  101.89   24.80
  -9  -1  11    1.00   12.80
  -9  -1  11  -14.40   14.90
   8   1 -11  344.77   27.90
  -8  -1  11  297.17   27.40
  -8  -1  11  318.27   35.40
   7   1 -11  203.18   23.60
  -7  -1  11  240.28   30.30
  -7  -1  11  256.37   25.00
   6   1 -11  -10.70    9.50
  -6  -1  11   -0.20   10.20
  -6  -1  11    0.00   12.30
   5   1 -11  665.73   36.70
  -5  -1  11  651.83   39.90
  -5  -1  11  676.33   32.40
   4   1 -11  988.20   43.60
   4   1 -11 1039.60   35.70
  -4  -1  11  941.91   47.50
  -4  -1  11 1057.09   38.50
   3   1 -11   73.49   17.40
   3   1 -11   90.59   14.60
  -3  -1  11  133.49   18.00
  -3  -1  11  131.59   21.70
   2   1 -11  213.88   21.50
  -2  -1  11  280.87   21.50
  -2  -1  11  250.57   26.80
   1   1 -11  299.17   15.50
   1   1 -11  338.27   25.30
  -1  -1  11  314.47   22.60
  -1  -1  11  311.57   31.00
   0   1 -11   82.99   16.30
   0   1 -11   67.89   11.10
   0  -1  11   58.09   16.40
  -1   1 -11  -14.10   11.60
  -1   1 -11   -1.70    8.40
   1  -1  11    1.90   12.70
  -2   1 -11  184.88   23.90
  -2   1 -11  213.08   22.50
   2  -1  11  209.58   29.10
  -3   1 -11  285.87   28.40
  -3   1 -11  288.77   28.00
   3  -1  11  286.17   32.50
  -4   1 -11   17.70   14.20
  -4   1 -11   17.00   16.90
   4  -1  11    0.90   15.70
  -5   1 -11  257.17   33.40
  -5   1 -11  285.27   31.80
   5  -1  11  302.17   36.10
  -6   1 -11  241.78   34.60
  -6   1 -11  212.48   32.20
  -7   1 -11   -0.30   19.10
  -7   1 -11   31.20   21.10
 -10   0  11   68.49   21.70
   9   0 -11  124.49   20.90
  -9   0  11  159.38   24.00
  -9   0  11  125.29   24.40
   8   0 -11   10.90   12.20
  -8   0  11   30.80   12.20
  -8   0  11    1.40   13.80
   7   0 -11  277.77   26.70
  -7   0  11  253.27   22.60
  -7   0  11  260.37   30.10
   6   0 -11  713.83   36.60
  -6   0  11  646.64   40.10
  -6   0  11  712.93   32.40
   5   0 -11  228.48   25.20
  -5   0  11  245.08   20.30
  -5   0  11  200.18   26.60
   4   0 -11  253.47   25.70
   4   0 -11  243.68   20.00
  -4   0  11  203.28   27.00
  -4   0  11  257.47   19.50
   3   0 -11  753.02   39.00
   3   0 -11  711.93   32.40
  -3   0  11  764.42   41.00
  -3   0  11  708.13   28.30
   2   0 -11  265.07   22.90
   2   0 -11  312.07   26.90
  -2   0  11  283.47   29.40
  -2   0  11  299.27   19.40
   1   0 -11   58.89   14.70
   1   0 -11   27.90    8.00
  -1   0  11   36.80   15.40
   0   0 -11  516.85   25.50
   0   0 -11  565.74   33.30
   0   0  11  533.95   36.40
  -1   0 -11  262.37   22.20
  -1   0 -11  311.37   28.80
   1   0  11  260.57   29.20
   1   0  11  280.47   17.50
  -2   0 -11    5.50   11.50
  -2   0 -11    3.90   14.40
   2   0  11   -9.90   12.00
  -3   0 -11  425.46   35.30
  -3   0 -11  402.96   31.90
   3   0  11  409.76   35.70
  -4   0 -11  483.05   38.50
  -4   0 -11  484.95   36.50
   4   0  11  472.85   38.10
  -5   0 -11   53.59   19.70
  -5   0 -11   52.39   19.20
  -6   0 -11   70.79   22.10
  -6   0 -11  100.09   23.90
  -7   0 -11  204.28   36.70
  -7   0 -11  178.18   29.90
  -7   0 -11  196.58   31.80
 -11   1  11  122.09   27.30
 -10   1  11   -6.80   15.60
   9  -1 -11   69.19   17.30
  -9   1  11   42.00   19.00
   8  -1 -11  300.87   27.80
  -8   1  11  281.47   32.40
   7  -1 -11   97.69   18.80
  -7   1  11   73.69   13.20
  -7   1  11   56.19   18.40
   6  -1 -11   92.09   19.00
  -6   1  11  115.49   15.60
  -6   1  11  137.49   25.10
   5  -1 -11 1147.69   47.90
  -5   1  11 1218.38   51.29
  -5   1  11 1112.09   35.90
   4  -1 -11  470.05   31.00
   4  -1 -11  488.65   27.80
  -4   1  11  511.45   22.00
  -4   1  11  455.15   32.80
   3  -1 -11   76.49   16.90
   3  -1 -11  106.59   16.60
  -3   1  11   79.79   17.70
  -3   1  11  103.79   11.90
   2  -1 -11  973.60   40.70
   2  -1 -11  928.71   44.10
   2  -1 -11  991.50   31.70
  -2   1  11  990.30   45.50
   1  -1 -11  738.83   36.80
   1  -1 -11  738.93   28.80
  -1   1  11  759.32   32.80
  -1   1  11  783.92   40.80
   0  -1 -11   95.69   19.10
   0  -1 -11   86.09   15.70
   0   1  11   65.99   12.10
   0   1  11   69.49   17.20
  -1  -1 -11  207.08   26.70
  -1  -1 -11  140.99   20.90
   1   1  11  183.78   27.60
   1   1  11  131.89   14.60
  -2  -1 -11  487.65   32.30
  -2  -1 -11  448.66   34.50
   2   1  11  469.75   35.90
  -3  -1 -11  101.49   21.50
  -3  -1 -11  134.19   23.80
   3   1  11   82.59   20.00
  -4  -1 -11   73.79   21.30
  -4  -1 -11   84.39   21.00
   4   1  11   89.49   22.90
  -5  -1 -11  322.37   36.00
  -5  -1 -11  342.97   36.60
  -6  -1 -11   76.49   24.60
  -6  -1 -11   87.79   21.00
  -6  -1 -11  104.59   25.40
  -7  -1 -11   41.80   17.20
  -7  -1 -11  -13.10   19.30
  -7  -1 -11   16.20   20.10
 -11   2  11   72.49   23.20
  10  -2 -11  232.08   29.10
 -10   2  11  205.38   31.50
   9  -2 -11   96.99   20.10
  -9   2  11  127.19   23.70
   8  -2 -11   27.60   14.20
  -8   2  11   16.20   14.30
   7  -2 -11  376.36   30.60
  -7   2  11  360.06   31.50
   6  -2 -11  525.35   32.40
  -6   2  11  457.25   34.10
   5  -2 -11   53.49   16.70
  -5   2  11   52.79   16.20
   4  -2 -11  287.47   25.80
   4  -2 -11  264.17   23.90
  -4   2  11  270.07   27.40
   3  -2 -11  394.36   27.60
   3  -2 -11  402.26   30.20
  -3   2  11  410.16   31.00
  -3   2  11  379.06   26.80
   2  -2 -11   38.70   13.70
   2  -2 -11    9.90    8.40
   2  -2 -11   24.20   14.30
  -2   2  11   15.40   14.30
  -2   2  11    7.00   10.20
   1  -2 -11  367.56   23.20
   1  -2 -11  364.86   27.50
   1  -2 -11  412.36   32.30
  -1   2  11  405.26   24.90
  -1   2  11  414.26   30.80
   0  -2 -11  962.90   44.30
   0  -2 -11  839.62   36.90
   0   2  11  915.71   43.80
   0   2  11  887.11   34.50
  -1  -2 -11  165.48   23.40
  -1  -2 -11  182.88   23.40
   1   2  11  212.48   28.20
   1   2  11  219.38   17.60
  -2  -2 -11   74.99   19.50
  -2  -2 -11   74.49   17.30
   2   2  11   84.29   19.80
  -3  -2 -11  264.37   32.10
  -3  -2 -11  230.68   28.60
   3   2  11  315.67   33.70
  -4  -2 -11  181.38   24.10
  -4  -2 -11  125.09   23.10
  -4  -2 -11  147.99   25.30
  -5  -2 -11  -13.70   17.20
  -5  -2 -11    4.30   12.30
  -5  -2 -11    5.30   16.70
  -6  -2 -11  213.38   37.50
  -6  -2 -11  281.07   32.70
  -6  -2 -11  290.07   36.30
  11  -3 -11   79.79   22.40
 -11   3  11   74.09   23.00
 -11   3  11  110.19   25.50
  10  -3 -11   16.30   14.90
 -10   3  11   -5.90   14.20
 -10   3  11   31.10   16.40
   9  -3 -11  268.47   29.10
  -9   3  11  292.07   32.80
  -9   3  11  258.77   29.10
   8  -3 -11  191.78   26.40
  -8   3  11  178.98   27.00
  -8   3  11  220.28   30.00
   7  -3 -11   21.20   13.20
  -7   3  11   17.90   14.10
  -7   3  11   15.90   13.50
   6  -3 -11  186.08   25.70
  -6   3  11  175.88   25.20
  -6   3  11  233.58   26.90
   5  -3 -11  305.57   28.10
  -5   3  11  286.57   26.90
  -5   3  11  267.27   27.60
   4  -3 -11    0.60   11.00
   4  -3 -11    4.80   13.50
  -4   3  11    7.60   11.80
  -4   3  11    5.60   13.30
   3  -3 -11   78.49   16.60
   3  -3 -11   83.29   17.30
   3  -3 -11   80.19   13.60
  -3   3  11   94.39   15.80
  -3   3  11   67.79   17.00
   2  -3 -11  685.93   30.40
   2  -3 -11  655.33   35.50
   2  -3 -11  669.43   36.30
  -2   3  11  720.63   35.00
  -2   3  11  758.62   37.60
   1  -3 -11  205.68   21.10
   1  -3 -11  208.58   25.50
   1  -3 -11  230.88   24.40
  -1   3  11  239.48   20.80
  -1   3  11  256.97   27.70
   0  -3 -11   47.30   16.80
   0  -3 -11   45.60   14.30
   0  -3 -11   54.89   16.20
   0   3  11   40.10   11.70
   0   3  11   40.20   15.50
  -1  -3 -11  735.73   40.80
  -1  -3 -11  710.43   41.10
  -1  -3 -11  667.73   37.20
   1   3  11  725.43   41.10
   1   3  11  689.33   30.10
  -2  -3 -11  265.07   30.20
  -2  -3 -11  270.97   31.20
   2   3  11  261.47   29.30
  -3  -3 -11  -26.50   13.50
  -3  -3 -11    9.30   18.70
  -3  -3 -11   -4.60   14.20
  -4  -3 -11  129.19   25.80
  -4  -3 -11  153.78   25.20
  -4  -3 -11  180.98   30.40
  -5  -3 -11  272.17   34.80
  -5  -3 -11  229.28   34.80
  -5  -3 -11  223.38   40.40
  -6  -3 -11   -1.00   17.40
  -6  -3 -11   12.80   21.50
  11  -4 -11  162.78   28.20
 -11   4  11   79.59   22.90
 -11   4  11  113.19   24.70
  10  -4 -11  218.38   29.80
 -10   4  11  186.48   31.10
 -10   4  11  252.27   30.90
   9  -4 -11   -5.30   13.40
  -9   4  11   -2.90   15.70
  -9   4  11    8.90   13.40
   8  -4 -11  392.76   34.00
  -8   4  11  347.17   34.20
  -8   4  11  393.56   31.00
   7  -4 -11  314.17   31.10
  -7   4  11  349.37   29.40
  -7   4  11  349.27   32.40
   6  -4 -11   74.09   18.40
  -6   4  11   75.79   16.90
  -6   4  11   90.49   20.70
   5  -4 -11  117.79   20.60
  -5   4  11  152.58   23.80
  -5   4  11  114.19   19.30
   4  -4 -11  368.46   30.00
  -4   4  11  359.96   29.30
  -4   4  11  353.56   28.00
   3  -4 -11  363.26   23.40
   3  -4 -11  338.47   29.10
   3  -4 -11  284.87   28.50
  -3   4  11  369.06   28.40
  -3   4  11  362.96   27.50
   2  -4 -11  101.89   19.90
   2  -4 -11   92.49   18.30
   2  -4 -11  162.38   19.80
  -2   4  11  115.69   18.20
  -2   4  11  109.69   18.20
   1  -4 -11  282.77   29.30
   1  -4 -11  277.17   25.60
   1  -4 -11  298.77   28.30
  -1   4  11  288.97   24.00
  -1   4  11  287.27   27.80
   0  -4 -11  265.37   28.90
   0  -4 -11  257.27   27.00
   0  -4 -11  227.98   25.60
   0   4  11  286.47   22.60
   0   4  11  252.57   26.70
  -1  -4 -11   -7.40   13.10
  -1  -4 -11    2.80   13.70
  -1  -4 -11   -7.00   12.70
   1   4  11   -1.30   11.80
   1   4  11  -15.90   11.20
  -2  -4 -11  144.09   24.90
  -2  -4 -11  190.18   28.90
  -2  -4 -11  177.28   24.10
  -3  -4 -11  397.36   36.00
  -3  -4 -11  326.77   31.80
  -3  -4 -11  340.67   35.60
  -4  -4 -11   41.00   21.10
  -4  -4 -11   46.60   18.40
  -5  -4 -11   37.10   23.40
  -5  -4 -11   96.69   23.80
  11  -5 -11   10.00   19.00
 -11   5  11    7.10   17.40
  10  -5 -11   99.29   22.70
 -10   5  11   89.39   22.30
   9  -5 -11  168.38   28.10
  -9   5  11  181.68   29.60
   8  -5 -11   43.90   17.10
  -8   5  11   39.10   14.20
  -8   5  11   27.50   16.60
   7  -5 -11   58.89   18.60
  -7   5  11   53.99   17.60
  -7   5  11   51.19   15.50
   6  -5 -11  419.76   33.50
  -6   5  11  376.16   33.20
  -6   5  11  415.76   30.30
   5  -5 -11  107.89   20.80
  -5   5  11   69.09   18.00
  -5   5  11  123.99   22.80
   4  -5 -11   35.40   12.10
   4  -5 -11   72.69   18.70
  -4   5  11   59.89   16.70
  -4   5  11   33.40   13.10
   3  -5 -11  507.85   31.00
   3  -5 -11  545.65   35.20
   3  -5 -11  554.84   35.50
  -3   5  11  511.65   33.20
  -3   5  11  576.74   32.30
   2  -5 -11  223.68   27.60
   2  -5 -11  254.17   27.30
   2  -5 -11  250.67   25.50
  -2   5  11  268.87   24.90
  -2   5  11  254.47   24.90
   1  -5 -11   13.50   13.10
   1  -5 -11   25.70   14.70
   1  -5 -11   17.30   15.70
  -1   5  11    9.40   10.70
  -1   5  11   13.80   11.90
   0  -5 -11  357.66   31.60
   0  -5 -11  212.98   26.70
   0  -5 -11  236.08   30.20
   0   5  11  272.17   24.20
   0   5  11  268.87   27.40
  -1  -5 -11  336.37   34.00
  -1  -5 -11  316.77   32.50
  -1  -5 -11  343.27   29.60
  -2  -5 -11   44.60   19.70
  -2  -5 -11   84.99   20.40
  -2  -5 -11   49.00   15.80
  -3  -5 -11   72.09   21.50
  -3  -5 -11   79.09   22.80
  -4  -5 -11  158.38   26.60
  -4  -5 -11  127.49   27.80
  -5  -5 -11   61.29   26.30
  -5  -5 -11   90.59   24.40
  11  -6 -11  139.69   28.30
 -11   6  11  118.39   25.80
  10  -6 -11   51.19   19.60
 -10   6  11   44.20   19.60
   9  -6 -11   69.39   21.00
  -9   6  11   44.20   19.80
   8  -6 -11  206.48   29.10
  -8   6  11  261.37   32.10
   7  -6 -11  182.68   25.60
  -7   6  11  217.08   29.40
   6  -6 -11   10.20   14.30
  -6   6  11   25.80   16.00
   5  -6 -11  343.97   32.20
  -5   6  11  303.57   28.30
   4  -6 -11  254.47   25.10
   4  -6 -11  250.17   28.50
  -4   6  11  252.87   28.20
  -4   6  11  228.28   23.10
   3  -6 -11   64.39   18.10
   3  -6 -11   36.00   15.00
   3  -6 -11   51.19   16.50
  -3   6  11   56.09   16.50
  -3   6  11   62.09   13.80
   2  -6 -11   65.79   17.50
   2  -6 -11   48.40   16.30
   2  -6 -11  110.49   21.10
  -2   6  11   84.59   15.50
  -2   6  11   50.59   15.40
   1  -6 -11  323.97   32.60
   1  -6 -11  369.66   30.10
   1  -6 -11  419.96   34.70
  -1   6  11  397.06   29.30
  -1   6  11  394.96   28.40
   0  -6 -11  129.29   23.80
   0  -6 -11  172.28   25.50
   0  -6 -11  139.19   23.10
   0   6  11  176.88   22.10
  -1  -6 -11   37.50   18.60
  -1  -6 -11   33.10   15.60
  -1  -6 -11   37.80   19.70
  -2  -6 -11  198.48   30.70
  -2  -6 -11  146.19   27.20
  -3  -6 -11   76.69   23.40
  -3  -6 -11  119.29   24.10
  -4  -6 -11   29.20   17.80
  -4  -6 -11    2.80   19.40
  10  -7 -11   95.79   25.50
 -10   7  11  138.99   27.40
   9  -7 -11  123.19   25.10
  -9   7  11   98.79   23.70
   8  -7 -11   -9.40   14.80
  -8   7  11   20.40   15.60
   7  -7 -11  110.79   23.80
  -7   7  11   68.59   20.00
   6  -7 -11  265.77   30.50
  -6   7  11  217.88   30.40
   5  -7 -11   22.20   17.30
  -5   7  11   17.00   15.70
   4  -7 -11   54.59   16.90
   4  -7 -11   41.90   17.00
  -4   7  11   11.40   14.00
   3  -7 -11  190.08   26.30
   3  -7 -11  167.28   27.30
  -3   7  11  192.48   27.20
   2  -7 -11   72.19   20.30
   2  -7 -11   76.89   18.10
   2  -7 -11  119.59   21.80
  -2   7  11   57.49   16.80
   1  -7 -11   -6.60   13.50
   1  -7 -11   -8.60   13.20
   1  -7 -11    2.80   14.00
  -1   7  11   -1.80   12.50
   0  -7 -11  221.08   26.10
   0  -7 -11  176.58   29.50
   0  -7 -11  176.28   30.00
   0   7  11  172.38   24.30
  -1  -7 -11  118.59   26.50
  -1  -7 -11  110.99   23.30
  -2  -7 -11  -10.10   17.10
  -2  -7 -11   21.70   17.90
  -3  -7 -11   98.59   27.10
  -3  -7 -11   76.59   22.50
  10  -8 -11    0.90   16.70
 -10   8  11  -25.80   15.20
   9  -8 -11   67.89   23.00
  -9   8  11   42.30   20.00
   8  -8 -11  142.99   26.10
  -8   8  11  106.39   23.00
   7  -8 -11   18.60   17.70
  -7   8  11   36.60   17.70
   6  -8 -11   48.00   18.90
  -6   8  11   29.60   16.50
   5  -8 -11  258.67   31.20
  -5   8  11  295.97   32.80
   4  -8 -11  188.98   27.40
   4  -8 -11  134.49   23.30
  -4   8  11   94.29   22.10
   3  -8 -11   -8.40   14.70
   3  -8 -11   -9.20   12.70
  -3   8  11    1.30   14.00
   2  -8 -11  170.98   30.80
   2  -8 -11  182.58   27.50
  -2   8  11  136.09   23.20
   1  -8 -11  130.79   25.10
   1  -8 -11  213.48   26.70
   1  -8 -11  131.09   27.00
  -1   8  11  113.49   21.60
   0  -8 -11   20.70   18.80
   0  -8 -11   18.50   15.80
   0   8  11   18.20   15.30
  -1  -8 -11   94.49   24.70
  -1  -8 -11   66.39   20.00
  -2  -8 -11   65.99   21.00
  -2  -8 -11   60.19   24.20
   9  -9 -11    8.30   17.40
  -9   9  11   65.09   22.20
   8  -9 -11   17.50   18.60
  -8   9  11   35.10   19.40
   7  -9 -11  134.69   26.90
  -7   9  11  143.89   26.00
   6  -9 -11  102.89   23.30
  -6   9  11   44.00   18.80
   5  -9 -11   13.90   16.60
  -5   9  11    2.60   14.50
   4  -9 -11  116.79   24.20
   4  -9 -11  129.69   25.00
  -4   9  11   97.59   22.40
   3  -9 -11  175.48   26.10
   3  -9 -11  105.59   24.40
  -3   9  11  107.59   24.00
   2  -9 -11   11.00   13.50
   2  -9 -11    3.60   17.30
  -2   9  11  -11.50   13.70
   1  -9 -11   87.09   23.10
  -1   9  11   58.29   20.80
   0  -9 -11  121.19   29.00
   8 -10 -11   34.40   20.30
  -8  10  11  112.29   26.20
   7 -10 -11    8.80   17.70
  -7  10  11   40.30   19.70
   6 -10 -11   57.79   20.80
  -6  10  11   87.99   25.40
   5 -10 -11  119.79   24.20
  -5  10  11   94.19   23.60
   4 -10 -11   16.00   16.50
   4 -10 -11   10.10   18.70
  -4  10  11   -3.20   17.00
   3 -10 -11   87.49   25.30
   3 -10 -11   70.19   19.40
  -3  10  11   61.99   21.90
   2 -10 -11   71.39   24.10
  -2  10  11   90.29   22.90
   1  10 -12   -3.70   16.60
  -1 -10  12    4.50   20.00
   0  10 -12    0.70   17.10
   0 -10  12   57.99   23.90
  -1  10 -12  183.08   30.80
   1 -10  12   72.59   25.00
  -2  10 -12   -5.60   14.60
   2 -10  12   -6.50   18.20
   3 -10  12   78.89   24.30
  -3  -9  12  -15.30   18.20
  -3  -9  12   -9.80   17.80
  -2  -9  12   44.80   23.50
  -2  -9  12   78.99   26.10
  -1  -9  12   87.79   26.70
  -1  -9  12  133.19   28.20
   0   9 -12   56.79   19.00
   0  -9  12    9.40   20.00
   0  -9  12   18.90   19.60
  -1   9 -12   74.09   21.10
   1  -9  12   74.49   23.40
   1  -9  12   50.69   21.50
  -2   9 -12  148.89   23.70
   2  -9  12  123.89   25.10
   2  -9  12  131.39   25.20
  -3   9 -12   67.09   20.20
   3  -9  12   53.59   19.60
   3  -9  12   70.09   23.10
  -4   9 -12    8.30   16.00
  -5   9 -12  121.09   27.90
  -5   9 -12   48.50   20.80
  -5  -8  12  -32.30   17.10
  -5  -8  12    8.00   19.60
  -4  -8  12   92.99   25.50
  -4  -8  12   73.89   25.10
  -3  -8  12  116.69   26.80
  -3  -8  12  115.49   26.80
  -2  -8  12   43.60   20.80
  -2  -8  12  -29.10   15.70
  -1  -8  12   58.69   22.40
  -1  -8  12   41.00   20.60
   0  -8  12  160.68   28.10
   0  -8  12  132.19   26.10
   1  -8  12   70.49   23.00
   1  -8  12   34.50   20.00
  -2   8 -12   -8.80   12.80
   2  -8  12   21.20   17.40
   2  -8  12   -4.10   16.10
  -3   8 -12  108.59   22.30
   3  -8  12   83.19   21.70
   3  -8  12  111.09   24.70
  -4   8 -12  162.18   25.90
   4  -8  12  221.98   30.70
  -5   8 -12   -2.00   17.00
  -5   8 -12   19.90   16.20
   5  -8  12   16.80   17.80
  -6   8 -12   83.69   24.30
  -6   8 -12   54.69   23.00
   6  -8  12   89.89   23.20
  -6  -7  12   41.70   22.40
  -6  -7  12   78.09   25.50
  -5  -7  12  112.29   26.40
  -5  -7  12  149.99   28.90
  -4  -7  12   -0.40   16.20
  -4  -7  12    5.60   17.00
  -3  -7  12   98.39   25.10
  -3  -7  12   83.89   22.30
  -2  -7  12  262.37   35.60
  -2  -7  12  281.87   35.10
  -1  -7  12   43.10   21.00
  -1  -7  12   79.39   21.80
   0  -7  12   21.00   18.00
   0  -7  12   25.40   17.90
  -1   7 -12  259.67   25.50
   1  -7  12  190.88   33.70
   1  -7  12  236.58   31.80
  -2   7 -12  177.78   25.00
   2  -7  12  199.68   31.60
   2  -7  12  204.48   31.50
  -3   7 -12   -3.10   13.50
  -3   7 -12   -0.70   20.70
   3  -7  12   18.90   17.40
   3  -7  12    6.50   16.40
  -4   7 -12   27.00   18.20
  -4   7 -12   56.49   17.80
   4  -7  12  103.69   22.60
  -5   7 -12  138.39   25.60
  -5   7 -12  134.49   25.70
   5  -7  12  191.48   32.70
  -6   7 -12   15.80   19.10
  -6   7 -12   13.10   17.10
   6  -7  12   50.69   20.30
  -7  -6  12   93.29   26.60
  -7  -6  12  195.38   33.00
  -6  -6  12    3.20   17.90
  -6  -6  12   47.60   20.80
  -5  -6  12   24.30   18.80
  -5  -6  12   46.50   18.50
  -4  -6  12  214.98   31.00
  -4  -6  12  300.97   35.60
  -3  -6  12  179.48   32.30
  -3  -6  12  194.68   30.60
  -2  -6  12   14.80   15.50
  -2  -6  12   -2.50   15.80
  -1  -6  12  174.28   29.10
  -1  -6  12  194.38   30.30
   0   6 -12  138.19   20.00
   0  -6  12   70.39   21.10
   0  -6  12  173.18   28.60
  -1   6 -12    7.30   12.60
   1  -6  12    2.10   14.70
   1  -6  12   -0.50   16.00
  -2   6 -12  122.69   20.80
   2  -6  12  178.58   28.20
   2  -6  12  169.88   26.70
  -3   6 -12  370.46   31.00
  -3   6 -12  338.57   33.20
   3  -6  12  322.57   35.10
  -4   6 -12   54.89   18.50
  -4   6 -12   36.30   17.90
   4  -6  12   90.19   22.90
  -5   6 -12   25.20   18.80
  -5   6 -12   39.10   17.60
   5  -6  12   49.30   21.30
  -6   6 -12  209.18   30.00
  -6   6 -12  109.09   25.70
   6  -6  12  134.79   26.60
  -7   6 -12   38.20   22.50
  -7   6 -12   86.39   24.70
  -8  -5  12   13.30   19.40
  -8  -5  12   28.40   20.10
  -7  -5  12   25.90   16.90
  -7  -5  12    5.30   18.60
  -6  -5  12  172.98   29.20
  -6  -5  12  159.68   26.50
  -5  -5  12  174.08   29.90
  -5  -5  12  184.68   27.40
   4   5 -12    8.40   13.50
  -4  -5  12    5.30   15.70
  -4  -5  12   11.30   16.10
  -3  -5  12  199.78   32.20
  -3  -5  12  224.78   28.90
  -2  -5  12  438.26   39.00
  -2  -5  12  412.26   34.70
   1   5 -12   63.49   14.40
  -1  -5  12   55.09   20.60
  -1  -5  12   70.99   19.50
   0   5 -12  138.59   21.10
   0  -5  12  143.39   26.60
   0  -5  12   81.99   19.60
  -1   5 -12  345.77   28.30
   1  -5  12  356.16   32.50
   1  -5  12  262.37   33.00
  -2   5 -12   16.70   14.10
  -2   5 -12    4.70   11.20
   2  -5  12    8.80   14.40
   2  -5  12   14.50   17.60
  -3   5 -12  114.29   21.70
  -3   5 -12   93.59   17.90
   3  -5  12  168.28   30.10
  -4   5 -12  340.07   31.70
  -4   5 -12  354.46   34.50
   4  -5  12  303.97   36.80
  -5   5 -12   58.79   19.40
  -5   5 -12   25.70   18.20
   5  -5  12   44.20   21.10
  -6   5 -12  -10.40   17.70
  -6   5 -12  -24.70   14.50
   6  -5  12   22.70   16.60
  -7   5 -12  157.48   29.10
  -7   5 -12  149.79   29.20
  -8  -4  12   41.40   19.80
  -8  -4  12   28.00   18.90
  -7  -4  12  166.38   26.40
  -7  -4  12  222.78   34.30
  -6  -4  12    0.20   13.80
  -6  -4  12  -18.30   14.60
   5   4 -12  153.98   22.20
  -5  -4  12  123.69   21.90
  -5  -4  12  193.28   27.40
   4   4 -12  410.36   30.90
  -4  -4  12  434.46   37.80
  -4  -4  12  329.77   30.10
  -3  -4  12  144.39   26.20
  -3  -4  12   87.59   18.20
   2   4 -12   10.10   10.60
  -2  -4  12    8.10   13.30
  -2  -4  12  -12.80   15.60
   1   4 -12  629.44   32.10
  -1  -4  12  588.44   36.30
  -1  -4  12  566.44   41.80
   0   4 -12  297.97   25.80
   0  -4  12  329.57   28.50
   0  -4  12  315.67   34.50
  -1   4 -12  172.78   24.40
   1  -4  12  218.08   31.10
   1  -4  12  168.38   25.10
  -2   4 -12  436.76   27.90
  -2   4 -12  470.15   34.10
   2  -4  12  485.05   39.20
  -3   4 -12  160.28   27.10
  -3   4 -12  142.89   23.00
   3  -4  12  194.58   31.00
  -4   4 -12   20.00   16.30
  -4   4 -12    7.40   14.60
   4  -4  12   30.90   20.40
  -5   4 -12  122.09   25.30
  -5   4 -12  110.69   22.00
   5  -4  12   66.59   22.30
  -6   4 -12  278.27   33.20
  -6   4 -12  198.08   31.30
   6  -4  12  238.88   37.00
  -7   4 -12   -6.90   15.70
  -7   4 -12  -23.70   18.50
  -9  -3  12  158.18   26.70
  -9  -3  12  155.08   30.20
  -8  -3  12   14.10   16.60
  -8  -3  12   39.80   18.50
  -7  -3  12  160.38   25.00
  -7  -3  12  185.08   31.40
   6   3 -12  172.98   22.40
  -6  -3  12  152.68   26.30
  -6  -3  12  138.59   22.70
   5   3 -12   39.70   15.00
  -5  -3  12   35.30   14.50
  -5  -3  12   15.30   16.10
   4   3 -12  143.49   24.80
  -4  -3  12  164.28   24.30
  -4  -3  12  179.88   29.30
   3   3 -12  420.26   33.00
   3   3 -12  393.86   34.40
  -3  -3  12  398.76   36.10
  -3  -3  12  391.46   30.50
   2   3 -12  501.85   28.20
  -2  -3  12  416.66   37.70
  -2  -3  12  469.55   30.80
   1   3 -12   38.10   13.90
  -1  -3  12   16.60   13.50
  -1  -3  12    5.70   16.10
   0   3 -12  886.71   40.90
   0  -3  12  898.51   49.10
   0  -3  12  828.22   40.30
  -1   3 -12  531.95   34.00
  -1   3 -12  478.75   26.60
   1  -3  12  570.14   40.30
  -2   3 -12   29.00   11.60
  -2   3 -12   32.60   16.80
   2  -3  12    5.30   16.00
  -3   3 -12  146.09   22.10
  -3   3 -12  127.09   23.50
   3  -3  12  118.19   22.60
  -4   3 -12  198.98   26.80
  -4   3 -12  141.79   26.70
   4  -3  12  200.98   29.70
  -5   3 -12   14.10   18.60
  -5   3 -12   43.40   18.00
   5  -3  12   71.29   22.10
  -6   3 -12  102.99   24.90
  -6   3 -12  142.59   26.60
   6  -3  12  123.39   26.30
  -7   3 -12  132.59   26.60
  -7   3 -12  107.09   28.90
  -9  -2  12   72.59   23.50
  -9  -2  12   64.99   20.70
  -8  -2  12  313.07   36.20
  -8  -2  12  264.07   30.60
   7   2 -12   44.10   14.50
  -7  -2  12   39.10   18.90
  -7  -2  12   50.79   16.30
   6   2 -12   63.19   15.70
  -6  -2  12   30.80   17.10
  -6  -2  12   26.20   14.10
   5   2 -12  391.86   30.40
  -5  -2  12  349.07   26.90
  -5  -2  12  374.36   35.00
   4   2 -12  292.77   27.90
  -4  -2  12  242.08   30.90
  -4  -2  12  273.17   24.60
   3   2 -12  -11.10   13.30
   3   2 -12   -2.80    9.00
  -3  -2  12    3.20   15.10
  -3  -2  12  -21.40    9.80
   2   2 -12  392.76   26.30
  -2  -2  12  364.56   26.90
  -2  -2  12  368.36   35.10
   1   2 -12  408.16   27.70
  -1  -2  12  403.26   27.10
  -1  -2  12  389.06   35.60
   0   2 -12   14.40   13.50
   0  -2  12    5.90   10.90
   0  -2  12    3.40   14.30
  -1   2 -12  327.37   22.50
  -1   2 -12  264.47   28.00
   1  -2  12  372.86   34.50
  -2   2 -12  583.34   32.20
  -2   2 -12  587.44   37.80
   2  -2  12  585.34   40.60
  -3   2 -12   84.79   21.00
  -3   2 -12   95.79   17.80
   3  -2  12  118.39   24.40
  -4   2 -12   21.60   15.10
  -4   2 -12   14.10   15.20
   4  -2  12   36.90   19.50
  -5   2 -12  200.18   28.80
  -5   2 -12  196.48   29.70
   5  -2  12  229.18   32.70
  -6   2 -12  108.69   26.20
  -6   2 -12   59.49   22.10
  -7   2 -12   14.00   18.50
  -7   2 -12  -21.20   16.90
 -10  -1  12  209.48   35.60
  -9  -1  12   70.79   20.20
  -9  -1  12  115.69   25.90
   8   1 -12    3.30   12.10
  -8  -1  12   -5.20   14.60
  -8  -1  12    9.70   13.10
   7   1 -12  258.67   27.20
  -7  -1  12  300.07   33.70
  -7  -1  12  290.97   26.20
   6   1 -12  244.78   26.30
  -6  -1  12  228.88   23.70
  -6  -1  12  235.48   29.90
   5   1 -12   14.10   14.00
  -5  -1  12    6.00   14.00
  -5  -1  12    8.90   11.30
   4   1 -12  473.35   25.80
   4   1 -12  498.45   33.90
  -4  -1  12  482.05   28.10
  -4  -1  12  495.25   37.40
   3   1 -12  486.55   34.80
   3   1 -12  428.66   27.10
  -3  -1  12  455.65   36.50
  -3  -1  12  483.35   27.60
   2   1 -12   -9.20   10.00
  -2  -1  12   10.10   16.30
  -2  -1  12    4.60    9.80
   1   1 -12  413.86   29.20
  -1  -1  12  418.76   35.70
  -1  -1  12  457.15   26.00
   0   1 -12  470.05   31.40
   0   1 -12  495.05   30.60
   0  -1  12  443.36   36.20
  -1   1 -12  110.09   17.90
  -1   1 -12  148.09   25.00
   1  -1  12  109.59   22.60
  -2   1 -12   66.99   19.10
  -2   1 -12   82.99   16.50
   2  -1  12   95.39   22.50
  -3   1 -12  500.05   34.40
  -3   1 -12  601.74   40.80
   3  -1  12  546.45   41.50
  -4   1 -12  233.78   29.70
  -4   1 -12  172.68   26.30
   4  -1  12  236.78   34.00
  -5   1 -12    0.90   14.80
  -5   1 -12  -31.10   13.30
   5  -1  12   -5.80   16.90
  -6   1 -12  156.58   29.10
  -6   1 -12  128.39   26.50
  -7   1 -12  108.99   27.80
  -7   1 -12  130.79   27.90
 -10   0  12  -15.70   15.60
   9   0 -12  117.19   21.20
  -9   0  12  102.09   23.60
   8   0 -12  208.68   25.50
  -8   0  12  193.68   30.50
   7   0 -12    1.80   11.60
  -7   0  12   -2.90   14.50
  -7   0  12    3.20   11.70
   6   0 -12  387.16   31.40
  -6   0  12  435.56   35.90
  -6   0  12  391.06   25.90
   5   0 -12  954.90   45.90
  -5   0  12 1000.70   49.90
  -5   0  12 1024.20   37.10
   4   0 -12  114.79   20.40
   4   0 -12  104.39   15.40
  -4   0  12  137.79   17.80
  -4   0  12  140.69   23.90
   3   0 -12  265.27   29.40
   3   0 -12  227.48   22.40
  -3   0  12  242.68   30.60
  -3   0  12  285.87   19.70
   2   0 -12  698.63   39.30
   2   0 -12  644.94   34.00
  -2   0  12  693.63   42.00
  -2   0  12  702.53   28.50
   1   0 -12   85.59   17.50
  -1   0  12   99.49   21.50
   0   0 -12    2.90   13.30
   0   0 -12   16.70    9.70
   0   0  12   11.10    8.90
   0   0  12   19.50   16.90
  -1   0 -12  252.47   28.40
  -1   0 -12  239.98   22.20
   1   0  12  263.47   26.70
   1   0  12  217.08   29.50
  -2   0 -12  470.05   31.20
  -2   0 -12  454.85   35.50
   2   0  12  433.56   35.40
  -3   0 -12    6.50   13.40
  -3   0 -12   -3.00   15.20
   3   0  12    3.70   16.40
  -4   0 -12  208.88   29.50
  -4   0 -12  209.18   32.50
   4   0  12  295.67   34.20
  -5   0 -12  230.68   32.50
  -5   0 -12  252.07   35.70
  -6   0 -12  -12.60   19.60
  -6   0 -12    9.00   17.50
  -7   0 -12   32.60   17.90
  -7   0 -12   37.70   23.10
 -10   1  12  154.68   27.60
   9  -1 -12   48.40   16.70
  -9   1  12   12.80   16.40
   8  -1 -12   69.99   18.20
  -8   1  12   31.20   16.90
   7  -1 -12  410.56   32.50
  -7   1  12  395.56   34.40
   6  -1 -12   29.00   14.70
  -6   1  12   46.00   16.80
   5  -1 -12  287.27   28.70
  -5   1  12  292.17   30.90
   4  -1 -12  835.02   36.90
   4  -1 -12  713.63   40.90
  -4   1  12  781.42   43.50
   3  -1 -12  197.88   26.70
   3  -1 -12  210.28   23.40
  -3   1  12  188.68   28.70
   2  -1 -12   15.50   15.00
   2  -1 -12   33.30   13.90
  -2   1  12   49.30   13.20
  -2   1  12   48.30   18.00
   1  -1 -12  478.65   34.00
   1  -1 -12  529.35   33.50
  -1   1  12  498.55   36.20
  -1   1  12  449.06   26.70
   0  -1 -12  354.76   28.60
   0  -1 -12  319.67   23.50
   0   1  12  296.47   20.70
   0   1  12  319.37   32.20
  -1  -1 -12   30.10   16.50
  -1  -1 -12   21.70   13.10
   1   1  12   58.69   18.30
  -2  -1 -12  139.99   23.20
  -2  -1 -12  142.69   24.00
   2   1  12  115.19   22.80
  -3  -1 -12  277.17   31.30
  -3  -1 -12  344.47   34.60
   3   1  12  356.36   36.20
  -4  -1 -12   25.10   17.70
  -4  -1 -12   26.70   20.30
   4   1  12   46.10   18.90
  -5  -1 -12   96.19   24.60
  -5  -1 -12  138.09   27.10
  -6  -1 -12  276.37   38.60
  -6  -1 -12  359.36   36.00
  -6  -1 -12  386.36   42.50
  10  -2 -12   13.00   16.10
 -10   2  12   34.70   18.40
   9  -2 -12  170.28   27.10
  -9   2  12  120.59   23.90
   8  -2 -12   90.49   20.10
  -8   2  12   94.19   21.00
   7  -2 -12   56.79   17.20
  -7   2  12   62.19   18.50
   6  -2 -12  566.14   36.50
  -6   2  12  507.85   37.90
   5  -2 -12  412.46   32.50
  -5   2  12  335.17   31.30
   4  -2 -12   11.30   13.50
   4  -2 -12    5.50   11.40
  -4   2  12   -5.60   13.60
  -4   2  12    1.00   11.60
   3  -2 -12  181.28   24.00
   3  -2 -12  247.68   27.50
  -3   2  12  250.67   24.30
  -3   2  12  203.88   27.90
   2  -2 -12  561.74   36.80
   2  -2 -12  568.44   35.20
  -2   2  12  649.74   33.50
  -2   2  12  632.34   38.40
   1  -2 -12   46.50   16.70
   1  -2 -12   17.10   10.20
   1  -2 -12   13.70   13.60
  -1   2  12   17.40   10.70
  -1   2  12   13.80   15.00
   0  -2 -12  261.47   24.50
   0  -2 -12  329.87   32.70
   0  -2 -12  298.17   29.80
   0   2  12  279.47   30.40
   0   2  12  276.47   20.90
  -1  -2 -12  650.83   36.10
  -1  -2 -12  678.93   41.80
   1   2  12  714.53   43.20
  -2  -2 -12  151.58   24.60
  -2  -2 -12  135.39   24.30
   2   2  12   94.39   21.40
  -3  -2 -12   26.20   17.70
  -3  -2 -12   17.30   17.60
   3   2  12   28.10   18.10
  -4  -2 -12  203.38   33.40
  -4  -2 -12  249.78   32.10
  -5  -2 -12  121.09   25.80
  -5  -2 -12  125.99   25.80
  -6  -2 -12  -13.20   18.00
  -6  -2 -12   35.60   20.50
  10  -3 -12   94.29   22.50
 -10   3  12  146.29   25.90
 -10   3  12  178.88   29.90
   9  -3 -12   38.80   17.30
  -9   3  12   10.00   15.90
  -9   3  12   29.70   16.20
   8  -3 -12  364.26   34.30
  -8   3  12  351.16   33.10
  -8   3  12  384.66   35.80
   7  -3 -12  167.08   25.00
  -7   3  12  176.08   27.60
  -7   3  12  186.08   27.80
   6  -3 -12   19.00   14.30
  -6   3  12   20.70   14.50
  -6   3  12   13.90   14.50
   5  -3 -12  130.29   21.70
  -5   3  12  152.58   25.10
  -5   3  12  158.58   24.00
   4  -3 -12  179.08   23.60
   4  -3 -12  217.88   28.00
  -4   3  12  165.28   25.60
  -4   3  12  227.08   25.10
   3  -3 -12   88.09   19.90
   3  -3 -12   66.69   16.90
  -3   3  12   57.59   17.30
  -3   3  12   72.59   16.00
   2  -3 -12  352.26   31.20
   2  -3 -12  375.26   31.60
  -2   3  12  380.66   26.40
  -2   3  12  291.97   29.90
   1  -3 -12  287.87   29.80
   1  -3 -12  310.47   29.40
   1  -3 -12  325.47   24.20
  -1   3  12  286.57   29.00
  -1   3  12  311.77   24.30
   0  -3 -12   71.19   15.90
   0  -3 -12   53.29   17.40
   0  -3 -12   51.99   17.60
   0   3  12   36.70   16.50
   0   3  12   45.10   12.90
  -1  -3 -12  140.99   23.50
  -1  -3 -12  136.49   21.70
  -1  -3 -12   98.89   22.10
   1   3  12   85.09   20.50
  -2  -3 -12  159.98   27.50
  -2  -3 -12  206.18   30.80
   2   3  12  177.28   28.10
  -3  -3 -12  214.48   31.60
  -3  -3 -12  224.08   32.80
  -4  -3 -12   22.90   18.70
  -4  -3 -12   -1.70   15.80
  -5  -3 -12  185.68   29.90
  -5  -3 -12  154.68   29.00
  10  -4 -12  190.18   29.50
 -10   4  12  230.68   33.00
 -10   4  12  153.68   26.60
   9  -4 -12  205.68   29.80
  -9   4  12  183.18   31.00
  -9   4  12  212.38   28.20
   8  -4 -12    5.80   14.10
  -8   4  12   -6.50   11.80
  -8   4  12  -10.90   12.20
   7  -4 -12  204.48   26.60
  -7   4  12  225.98   29.90
  -7   4  12  169.28   26.50
   6  -4 -12  545.25   38.30
  -6   4  12  423.76   34.40
  -6   4  12  438.26   35.00
   5  -4 -12   95.39   19.60
  -5   4  12   75.39   18.20
  -5   4  12  103.09   19.60
   4  -4 -12  119.19   20.00
   4  -4 -12  108.69   20.50
  -4   4  12  120.29   20.80
  -4   4  12  101.49   19.70
   3  -4 -12  650.63   38.50
   3  -4 -12  723.63   41.70
  -3   4  12  665.93   36.40
  -3   4  12  688.63   38.20
   2  -4 -12   15.60   15.60
   2  -4 -12   20.60   12.60
   2  -4 -12   53.19   18.00
  -2   4  12   72.49   15.70
  -2   4  12   33.00   15.10
   1  -4 -12   67.69   18.10
   1  -4 -12   62.19   19.60
   1  -4 -12   94.79   17.50
  -1   4  12   86.09   18.80
  -1   4  12   78.49   15.40
   0  -4 -12  482.75   34.80
   0  -4 -12  546.45   36.10
   0  -4 -12  451.85   31.90
   0   4  12  423.96   27.90
   0   4  12  430.96   33.80
  -1  -4 -12  164.48   24.70
  -1  -4 -12  175.88   27.30
  -1  -4 -12  133.49   23.30
   1   4  12  157.38   26.40
  -2  -4 -12   18.70   17.60
  -2  -4 -12   13.00   15.40
  -2  -4 -12   11.30   16.30
  -3  -4 -12  188.18   29.30
  -3  -4 -12  187.98   32.60
  -3  -4 -12  160.88   26.80
  -4  -4 -12  128.19   25.50
  -4  -4 -12  109.49   26.80
  -5  -4 -12   42.20   20.10
  -5  -4 -12   10.30   21.00
  10  -5 -12  -22.00   13.70
 -10   5  12   16.50   17.00
   9  -5 -12  198.88   29.90
  -9   5  12  194.18   31.10
   8  -5 -12  352.76   34.50
  -8   5  12  280.67   33.70
   7  -5 -12   35.60   17.10
  -7   5  12   23.40   15.60
  -7   5  12   43.40   18.80
   6  -5 -12   73.89   18.90
  -6   5  12   67.49   18.60
  -6   5  12   81.79   20.40
   5  -5 -12  453.25   35.30
  -5   5  12  443.56   33.00
  -5   5  12  356.66   32.10
   4  -5 -12  257.17   29.50
  -4   5  12  222.98   27.20
  -4   5  12  281.67   26.70
   3  -5 -12    1.50   13.50
   3  -5 -12  -10.90   12.80
  -3   5  12   -0.90   11.80
  -3   5  12   -2.20   11.60
   2  -5 -12  292.67   30.90
   2  -5 -12  249.18   29.20
   2  -5 -12  255.17   25.80
  -2   5  12  290.17   27.70
  -2   5  12  231.88   25.60
   1  -5 -12  277.97   32.00
   1  -5 -12  316.07   29.20
   1  -5 -12  275.37   29.50
  -1   5  12  287.17   25.90
  -1   5  12  325.97   28.50
   0  -5 -12   25.30   16.40
   0  -5 -12   42.30   16.30
   0  -5 -12    9.60   12.30
   0   5  12   22.00   12.50
   0   5  12   20.00   13.90
  -1  -5 -12  112.49   22.40
  -1  -5 -12   93.29   21.60
  -1  -5 -12   81.89   19.00
  -2  -5 -12  208.58   26.50
  -2  -5 -12  253.47   32.20
  -2  -5 -12  216.28   29.80
  -3  -5 -12   36.70   19.40
  -3  -5 -12   15.70   19.90
  -4  -5 -12   84.39   25.30
  -4  -5 -12   60.59   20.90
  10  -6 -12  199.28   31.60
 -10   6  12  110.29   24.50
   9  -6 -12   38.90   19.30
  -9   6  12   36.80   20.00
   8  -6 -12   54.19   18.50
  -8   6  12   90.49   22.90
   7  -6 -12  254.67   31.50
  -7   6  12  224.88   31.10
   6  -6 -12   99.19   21.10
  -6   6  12  113.99   22.70
   5  -6 -12   11.10   15.20
  -5   6  12   -5.80   12.60
   4  -6 -12  142.89   24.20
  -4   6  12  147.09   25.30
   3  -6 -12  215.88   26.10
   3  -6 -12  274.37   29.90
   3  -6 -12  217.98   29.60
  -3   6  12  226.98   26.50
  -3   6  12  205.28   24.60
   2  -6 -12   11.50   15.70
   2  -6 -12   -3.30   13.60
   2  -6 -12   -5.50   13.30
  -2   6  12   12.20   12.70
  -2   6  12   16.70   13.60
   1  -6 -12   80.39   19.20
   1  -6 -12   88.29   20.80
   1  -6 -12   71.49   19.50
  -1   6  12   95.09   18.40
  -1   6  12   90.99   18.40
   0  -6 -12  359.56   35.40
   0  -6 -12  352.36   35.40
   0  -6 -12  334.47   32.10
   0   6  12  364.66   37.10
  -1  -6 -12   75.29   19.30
  -1  -6 -12   86.09   21.90
  -1  -6 -12   53.49   19.70
  -2  -6 -12   26.80   17.90
  -2  -6 -12    5.00   17.40
  -3  -6 -12  134.59   29.40
  -3  -6 -12  225.38   33.70
  10  -7 -12   15.40   19.90
 -10   7  12   -5.20   15.70
   9  -7 -12  141.49   27.90
  -9   7  12   83.89   22.70
   8  -7 -12   92.19   22.50
  -8   7  12   76.39   21.20
   7  -7 -12    2.20   15.00
  -7   7  12   -1.60   14.40
   6  -7 -12  180.68   29.70
  -6   7  12  187.48   30.90
   5  -7 -12  105.69   22.90
  -5   7  12  108.19   22.80
   4  -7 -12   23.90   15.30
  -4   7  12  -19.70   13.00
   3  -7 -12   96.19   20.40
   3  -7 -12   58.09   18.70
  -3   7  12   63.89   18.20
   2  -7 -12  240.98   30.70
   2  -7 -12  289.57   30.20
   2  -7 -12  287.27   33.80
  -2   7  12  212.38   27.10
   1  -7 -12  104.79   21.00
   1  -7 -12   94.09   21.70
   1  -7 -12  136.49   24.60
  -1   7  12   96.49   20.10
   0  -7 -12   10.90   16.70
   0  -7 -12   22.90   15.20
   0  -7 -12  -17.20   15.70
  -1  -7 -12  216.18   32.10
  -1  -7 -12  158.48   28.60
  -2  -7 -12   83.99   24.20
  -2  -7 -12   94.89   23.60
   9  -8 -12   -4.00   15.10
  -9   8  12  -21.80   16.30
   8  -8 -12   99.99   24.30
  -8   8  12  105.39   23.00
   7  -8 -12  138.39   26.20
  -7   8  12  114.69   23.80
   6  -8 -12   -6.70   13.90
  -6   8  12   21.60   16.50
   5  -8 -12   27.60   18.60
  -5   8  12   84.79   21.50
   4  -8 -12  211.68   30.50
  -4   8  12  198.08   29.90
   3  -8 -12   45.10   19.70
   3  -8 -12   89.99   21.00
  -3   8  12   57.79   19.10
   2  -8 -12   32.80   19.20
   2  -8 -12   17.90   15.40
  -2   8  12    7.50   14.80
   1  -8 -12  149.88   27.10
   1  -8 -12  111.89   25.60
   1  -8 -12  167.28   27.10
  -1   8  12   96.29   21.00
   0  -8 -12   75.59   23.90
   0  -8 -12  122.89   25.20
  -1  -8 -12  -12.30   15.10
  -1  -8 -12  -14.20   18.20
   8  -9 -12   28.80   18.80
  -8   9  12    4.10   19.40
   7  -9 -12   38.10   19.60
  -7   9  12  -16.10   17.40
   6  -9 -12  133.99   25.90
  -6   9  12  150.78   27.60
   5  -9 -12  111.69   24.90
  -5   9  12  100.29   23.00
   4  -9 -12  -13.90   13.70
  -4   9  12  -12.80   14.70
   3  -9 -12  116.09   25.20
   3  -9 -12  139.99   25.60
  -3   9  12  146.29   26.40
   2  -9 -12   17.40   20.20
   2  -9 -12   50.19   17.50
  -2   9  12   55.29   20.10
   1  -9 -12   23.80   16.50
  -1   9  12  -11.40   15.60
   6 -10 -12  -22.60   15.30
  -6  10  12    4.60   17.10
   5 -10 -12   91.19   23.90
  -5  10  12   81.89   22.90
   4 -10 -12   45.70   18.30
  -4  10  12   67.89   22.20
   3 -10 -12   18.00   20.50
  -3  10  12    9.30   17.70
  -2  -9  13  -36.10   16.90
  -2  -9  13   -6.00   18.50
  -1  -9  13   50.39   24.00
  -1  -9  13   -2.60   21.50
   0  -9  13   82.79   25.90
   0  -9  13   33.30   22.50
   1  -9  13   -9.30   16.80
   1  -9  13    2.00   18.80
   2  -9  13   54.69   22.00
   2  -9  13  139.69   29.20
   3  -9  13  183.88   34.00
   3  -9  13  209.78   35.50
  -4   9 -13    1.70   18.60
  -4  -8  13   24.20   20.70
  -4  -8  13  -21.90   18.70
  -3  -8  13   66.89   24.90
  -3  -8  13   88.99   25.60
  -2  -8  13   78.29   25.70
  -2  -8  13   80.29   26.30
  -1  -8  13   -8.10   19.40
  -1  -8  13  -18.80   18.00
   0  -8  13   66.09   23.10
   0  -8  13   20.30   19.90
   1  -8  13  127.09   26.30
   1  -8  13  194.48   32.30
   2  -8  13   35.20   19.00
   2  -8  13   73.39   22.80
  -3   8 -13  -11.00   15.20
   3  -8  13   49.30   19.20
   3  -8  13   10.50   16.90
  -4   8 -13  188.38   28.90
   4  -8  13  245.88   34.90
  -5   8 -13   85.49   24.20
   5  -8  13   71.09   23.90
  -5  -7  13   42.80   21.80
  -5  -7  13   85.79   24.90
  -4  -7  13  179.28   30.10
  -4  -7  13  173.28   31.50
  -3  -7  13   28.10   18.60
  -3  -7  13   -2.00   19.10
  -2  -7  13   64.69   22.10
  -2  -7  13   45.20   22.80
  -1  -7  13  119.49   27.20
  -1  -7  13  167.18   28.30
   0  -7  13  102.39   24.90
   0  -7  13   70.09   22.90
   1  -7  13   14.30   17.80
   1  -7  13   -2.40   15.40
  -2   7 -13  115.99   20.90
   2  -7  13  132.79   25.50
   2  -7  13   93.49   23.50
  -3   7 -13  152.28   25.50
   3  -7  13  171.28   31.60
  -4   7 -13  -12.70   15.60
   4  -7  13   34.10   20.00
  -5   7 -13   68.79   22.60
   5  -7  13  143.59   28.50
  -6   7 -13  106.69   23.60
  -6   7 -13   95.89   25.60
   6  -7  13  106.99   25.00
  -6  -6  13  156.18   29.80
  -6  -6  13   68.99   23.00
  -5  -6  13   30.80   20.00
  -5  -6  13   19.20   18.70
  -4  -6  13   25.50   19.10
  -4  -6  13   13.80   19.90
  -3  -6  13  194.18   35.10
  -3  -6  13  235.68   32.70
  -2  -6  13   57.09   20.60
  -2  -6  13   29.90   21.10
  -1  -6  13   -4.10   15.90
  -1  -6  13  -10.50   17.20
   0  -6  13  193.98   32.00
   0  -6  13  141.69   26.10
  -1   6 -13  192.08   27.80
   1  -6  13  252.97   33.90
   1  -6  13  238.88   32.00
  -2   6 -13    3.80   13.70
   2  -6  13  -18.90   15.30
   2  -6  13   44.90   18.90
  -3   6 -13   86.29   20.70
   3  -6  13   71.79   22.30
  -4   6 -13  242.68   32.30
   4  -6  13  302.77   40.00
  -5   6 -13   49.70   17.90
  -5   6 -13    4.80   17.50
   5  -6  13   12.10   20.50
  -6   6 -13   -9.50   16.10
  -6   6 -13   20.80   20.10
   6  -6  13   16.80   18.80
  -7  -5  13   48.90   21.50
  -7  -5  13   31.20   22.50
  -6  -5  13   39.40   18.30
  -6  -5  13   14.10   18.50
  -5  -5  13  187.38   33.40
  -5  -5  13  244.78   31.40
   4   5 -13  159.88   27.20
  -4  -5  13  162.28   26.10
  -4  -5  13  244.48   36.70
  -3  -5  13   30.30   17.00
  -3  -5  13   12.00   18.50
  -2  -5  13  210.58   29.40
  -2  -5  13  263.47   36.10
  -1  -5  13  148.99   26.60
  -1  -5  13  194.18   30.60
   0   5 -13   24.60   13.90
   0  -5  13   10.90   14.40
   0  -5  13  -11.80   16.20
  -1   5 -13  140.39   21.30
   1  -5  13  142.59   24.20
   1  -5  13  164.68   27.20
  -2   5 -13  275.27   30.70
   2  -5  13  302.37   35.90
  -3   5 -13   63.39   19.10
   3  -5  13   59.99   21.10
  -4   5 -13   33.90   19.70
  -4   5 -13   62.69   18.10
   4  -5  13   45.10   20.90
  -5   5 -13  100.29   25.40
  -5   5 -13  118.89   24.60
   5  -5  13  148.19   29.60
  -6   5 -13  119.79   27.60
  -6   5 -13  142.19   27.40
   6  -5  13  183.68   32.40
  -8  -4  13   18.90   18.00
  -8  -4  13   -2.30   17.70
  -7  -4  13  137.99   27.50
  -7  -4  13  188.18   29.80
  -6  -4  13   32.80   16.70
  -6  -4  13   48.20   19.20
   5   4 -13   14.00   13.10
  -5  -4  13   -8.10   14.00
  -5  -4  13   12.50   16.60
   4   4 -13  270.57   30.30
  -4  -4  13  296.47   37.20
  -4  -4  13  212.28   29.70
   3   4 -13  411.76   35.50
  -3  -4  13  425.56   32.80
  -3  -4  13  398.96   39.20
  -2  -4  13  192.58   27.60
  -2  -4  13  205.08   32.90
   1   4 -13   45.10   14.70
  -1  -4  13   71.79   18.30
  -1  -4  13   48.90   20.80
   0   4 -13  323.37   29.00
   0  -4  13  380.26   32.40
   0  -4  13  353.06   37.90
  -1   4 -13   69.79   18.20
   1  -4  13   71.19   17.80
   1  -4  13   86.09   21.60
  -2   4 -13   18.70   16.20
   2  -4  13   29.10   18.10
  -3   4 -13  368.56   36.60
  -3   4 -13  395.46   44.40
   3  -4  13  342.87   37.30
  -4   4 -13  141.79   23.10
  -4   4 -13  120.49   25.50
   4  -4  13  201.18   32.50
  -5   4 -13   27.20   17.00
  -5   4 -13   -8.90   17.80
   5  -4  13    8.40   19.60
  -6   4 -13  120.19   25.90
  -6   4 -13  217.58   34.30
   6  -4  13  168.78   31.60
  -8  -3  13  203.48   32.30
  -8  -3  13  215.78   34.90
  -7  -3  13   11.10   14.40
  -7  -3  13  -20.00   15.30
   6   3 -13  124.19   21.00
  -6  -3  13   78.29   21.10
  -6  -3  13   97.49   20.30
   5   3 -13  272.37   28.50
  -5  -3  13  212.08   30.10
  -5  -3  13  230.38   27.50
   4   3 -13   16.70   15.60
  -4  -3  13   30.60   14.10
  -4  -3  13   46.70   20.20
   3   3 -13   51.29   19.00
  -3  -3  13   79.59   22.40
  -3  -3  13   48.00   16.70
   2   3 -13  458.95   28.50
  -2  -3  13  436.96   32.20
  -2  -3  13  454.35   40.80
   1   3 -13  348.57   27.40
  -1  -3  13  267.07   35.00
  -1  -3  13  291.57   27.20
   0   3 -13   19.70   14.20
   0  -3  13    7.50   12.50
   0  -3  13   17.50   17.80
  -1   3 -13  313.57   30.50
   1  -3  13  435.06   38.40
  -2   3 -13  189.48   29.00
   2  -3  13  215.28   32.60
  -3   3 -13  -21.30   13.40
  -3   3 -13  -11.30   11.70
   3  -3  13   13.00   18.10
  -4   3 -13  157.08   27.80
  -4   3 -13  151.78   23.90
   4  -3  13  171.88   29.00
  -5   3 -13  189.68   30.10
  -5   3 -13  120.89   27.30
   5  -3  13  244.18   36.50
  -6   3 -13   20.30   18.00
  -6   3 -13   -1.90   20.10
   6  -3  13   27.50   20.10
  -9  -2  13    6.60   17.30
  -8  -2  13   74.09   22.20
  -8  -2  13   77.69   19.60
   7   2 -13  225.08   26.40
  -7  -2  13  201.48   26.80
  -7  -2  13  201.38   33.10
   6   2 -13   76.19   18.60
  -6  -2  13   79.09   21.60
  -6  -2  13   66.89   16.80
   5   2 -13   27.20   15.40
  -5  -2  13   22.80   13.40
  -5  -2  13    9.30   17.10
   4   2 -13  292.87   29.70
  -4  -2  13  270.47   26.10
  -4  -2  13  294.57   34.60
   3   2 -13  170.88   28.00
   3   2 -13  223.48   21.20
  -3  -2  13  178.18   31.70
  -3  -2  13  206.28   23.90
   2   2 -13  -13.60   10.10
  -2  -2  13    4.80   17.00
  -2  -2  13    1.30   11.90
   1   2 -13  636.74   34.70
  -1  -2  13  619.14   43.90
  -1  -2  13  589.94   32.50
   0   2 -13  566.64   36.60
   0  -2  13  561.94   41.30
  -1   2 -13    1.80   14.20
   1  -2  13    8.40   17.30
  -2   2 -13  398.26   32.50
  -2   2 -13  394.36   35.10
   2  -2  13  443.86   36.60
  -3   2 -13  362.06   35.40
  -3   2 -13  391.96   31.60
   3  -2  13  405.16   40.00
  -4   2 -13   37.90   20.30
  -4   2 -13    4.10   15.00
   4  -2  13   41.50   19.90
  -5   2 -13   23.00   18.10
  -5   2 -13   12.50   19.80
   5  -2  13   51.39   20.20
  -6   2 -13  105.49   24.10
  -6   2 -13   98.39   26.30
  -9  -1  13  183.68   34.30
   8   1 -13  106.39   20.40
  -8  -1  13  111.39   25.40
   7   1 -13   30.10   14.80
  -7  -1  13   19.70   15.70
   6   1 -13  222.48   26.20
  -6  -1  13  144.69   25.30
  -6  -1  13  242.48   24.10
   5   1 -13  303.47   32.10
  -5  -1  13  233.18   23.10
  -5  -1  13  213.48   31.90
   4   1 -13    4.80   14.50
   4   1 -13   -2.30    9.10
  -4  -1  13    5.80   16.10
  -4  -1  13  -13.60   10.10
   3   1 -13  304.17   25.20
   3   1 -13  239.98   28.00
  -3  -1  13  303.97   24.00
  -3  -1  13  284.67   34.10
   2   1 -13  386.36   27.90
  -2  -1  13  359.16   25.20
  -2  -1  13  326.57   35.30
   1   1 -13   -0.20   13.00
  -1  -1  13  -12.80   15.50
   0   1 -13  484.85   34.70
   0  -1  13  411.96   37.30
  -1   1 -13  485.25   36.20
   1  -1  13  543.75   39.00
  -2   1 -13   11.00   15.50
  -2   1 -13   35.90   13.70
   2  -1  13   36.30   17.90
  -3   1 -13   73.29   21.90
  -3   1 -13   71.99   17.70
   3  -1  13   96.39   23.20
  -4   1 -13  247.48   31.00
  -4   1 -13  210.38   30.50
   4  -1  13  236.48   35.70
  -5   1 -13  104.59   23.60
  -5   1 -13   64.59   22.40
   5  -1  13   58.79   23.80
  -6   1 -13   10.40   16.30
  -6   1 -13  -16.10   18.60
 -10   0  13   51.69   21.90
   9   0 -13   -6.00   14.40
  -9   0  13   -5.60   15.30
   8   0 -13  164.58   26.30
  -8   0  13  204.98   33.20
   7   0 -13  147.19   23.20
  -7   0  13  159.88   29.30
   6   0 -13   -4.70   12.20
  -6   0  13   -6.50   14.50
   5   0 -13  439.36   35.20
  -5   0  13  399.66   36.10
   4   0 -13  611.24   32.70
   4   0 -13  643.54   40.10
  -4   0  13  683.33   43.80
   3   0 -13   57.89   14.20
   3   0 -13   39.00   17.10
  -3   0  13   48.80   17.20
  -3   0  13   42.20   18.80
   2   0 -13  150.18   22.70
   2   0 -13  110.09   22.80
  -2   0  13   71.79   20.70
   1   0 -13  323.47   29.10
  -1   0  13  299.37   30.60
   0   0 -13   54.19   17.80
   0   0  13   69.89   19.70
   0   0  13   51.99   12.50
  -1   0 -13  117.29   21.90
  -1   0 -13  158.28   23.30
   1   0  13  168.58   29.50
  -2   0 -13  723.33   44.70
  -2   0 -13  739.13   38.70
   2   0  13  693.23   46.60
  -3   0 -13  216.68   28.10
  -3   0 -13  261.17   33.10
   3   0  13  238.78   35.10
  -4   0 -13  -16.70   16.20
  -4   0 -13  -21.30   13.30
   4   0  13   19.30   16.10
  -5   0 -13  121.69   25.70
  -5   0 -13  161.88   28.20
  -6   0 -13  171.88   32.00
  -6   0 -13  172.78   30.80
 -10   1  13  136.59   28.00
   9  -1 -13  172.08   27.50
  -9   1  13  160.28   27.50
   8  -1 -13   24.00   15.30
  -8   1  13    6.90   14.20
   7  -1 -13  205.08   29.10
  -7   1  13  235.18   31.70
   6  -1 -13  504.65   35.90
  -6   1  13  440.56   38.20
   5  -1 -13   49.20   16.60
  -5   1  13   78.19   21.00
   4  -1 -13  262.57   30.90
   4  -1 -13  278.77   24.50
  -4   1  13  262.77   31.60
   3  -1 -13  488.25   36.70
   3  -1 -13  435.76   31.10
  -3   1  13  409.46   36.00
   2  -1 -13  395.26   35.10
   2  -1 -13  292.07   28.00
  -2   1  13  357.46   25.90
  -2   1  13  378.96   35.20
   1  -1 -13   -7.20   13.10
   1  -1 -13    7.00   15.80
  -1   1  13  -15.10   14.50
  -1   1  13   -0.90    9.50
   0  -1 -13  241.68   29.00
   0   1  13  194.58   29.60
   0   1  13  170.28   19.00
  -1  -1 -13  352.96   31.70
  -1  -1 -13  393.66   28.30
   1   1  13  409.66   37.30
  -2  -1 -13    6.10   15.30
  -2  -1 -13   20.40   14.80
   2   1  13   15.10   14.90
  -3  -1 -13   56.99   20.80
  -3  -1 -13   79.09   19.90
   3   1  13   74.49   21.60
  -4  -1 -13  148.99   27.40
  -4  -1 -13  149.19   26.80
   4   1  13  154.88   28.40
  -5  -1 -13   32.10   19.80
  -5  -1 -13    7.60   18.80
  10  -2 -13   12.10   16.30
 -10   2  13  -17.70   14.30
   9  -2 -13   70.69   19.90
  -9   2  13   81.79   22.30
   8  -2 -13  248.78   30.70
  -8   2  13  235.38   31.20
   7  -2 -13   42.50   17.30
  -7   2  13   72.19   19.50
   6  -2 -13   80.69   19.50
  -6   2  13   68.09   20.60
   5  -2 -13  460.75   36.00
  -5   2  13  435.66   37.90
  -5   2  13  405.56   33.30
   4  -2 -13  169.38   25.40
   4  -2 -13  138.59   23.80
  -4   2  13  181.28   23.50
  -4   2  13  134.99   23.90
   3  -2 -13    4.50   12.30
   3  -2 -13    2.50   12.90
  -3   2  13   -8.20   10.70
  -3   2  13   -7.70   15.50
   2  -2 -13  574.44   38.80
   2  -2 -13  512.45   35.70
  -2   2  13  527.25   37.20
  -2   2  13  585.54   32.60
   1  -2 -13  270.07   29.50
   1  -2 -13  165.98   28.60
  -1   2  13  240.18   29.60
  -1   2  13  234.28   22.00
   0  -2 -13   14.90   15.30
   0  -2 -13   15.20   17.00
   0  -2 -13    8.60   18.20
   0   2  13   20.60    9.80
   0   2  13   28.10   17.00
  -1  -2 -13  107.59   20.90
  -1  -2 -13   70.49   16.80
   1   2  13   85.59   22.70
  -2  -2 -13  143.79   26.20
  -2  -2 -13  228.18   31.90
   2   2  13  179.68   30.60
  -3  -2 -13   88.89   22.90
  -3  -2 -13   88.59   20.80
   3   2  13   86.09   22.50
  -4  -2 -13   49.80   20.00
  -4  -2 -13   64.49   21.80
  -5  -2 -13  263.27   37.50
  -5  -2 -13  244.38   36.10
  10  -3 -13  182.28   29.50
 -10   3  13  192.48   32.80
 -10   3  13  200.78   32.80
   9  -3 -13   45.70   18.40
  -9   3  13   71.89   21.10
  -9   3  13   20.50   17.60
   8  -3 -13   47.10   17.90
  -8   3  13    6.40   14.90
  -8   3  13   53.59   19.70
   7  -3 -13  245.28   30.20
  -7   3  13  201.48   29.20
  -7   3  13  337.17   34.30
   6  -3 -13  272.67   30.80
  -6   3  13  216.78   29.10
  -6   3  13  318.07   32.30
   5  -3 -13   51.69   17.90
  -5   3  13   68.69   19.10
  -5   3  13   48.80   18.10
   4  -3 -13  498.35   33.50
   4  -3 -13  380.76   32.40
  -4   3  13  427.56   32.00
  -4   3  13  437.06   34.80
   3  -3 -13  407.56   33.30
   3  -3 -13  394.46   32.20
  -3   3  13  388.96   32.90
  -3   3  13  402.36   29.80
   2  -3 -13    2.50   14.30
   2  -3 -13    7.40   15.20
  -2   3  13   16.00   14.10
  -2   3  13    4.20   11.30
   1  -3 -13  205.98   28.00
   1  -3 -13  207.08   26.30
  -1   3  13  219.38   21.90
  -1   3  13  254.57   29.50
   0  -3 -13  456.25   36.80
   0  -3 -13  481.35   36.80
   0  -3 -13  454.25   31.50
   0   3  13  400.36   35.60
  -1  -3 -13  122.79   21.10
  -1  -3 -13  101.69   23.10
  -1  -3 -13  117.99   23.40
   1   3  13  105.39   22.30
  -2  -3 -13   -7.20   13.40
  -2  -3 -13   -1.40   17.20
  -2  -3 -13   40.20   18.40
   2   3  13   32.40   16.20
  -3  -3 -13  127.79   25.00
  -3  -3 -13  151.88   27.50
  -4  -3 -13   96.59   25.70
  -4  -3 -13   36.60   21.40
  10  -4 -13    8.90   17.10
 -10   4  13   -2.30   23.60
 -10   4  13   13.30   16.40
   9  -4 -13  107.39   23.70
  -9   4  13  109.19   23.30
  -9   4  13  151.28   27.60
   8  -4 -13  269.47   32.40
  -8   4  13  239.88   32.60
  -8   4  13  211.18   30.20
   7  -4 -13  -19.30   13.50
  -7   4  13  -12.70   14.00
  -7   4  13    6.50   14.50
   6  -4 -13  365.46   32.40
  -6   4  13  414.26   34.70
  -6   4  13  365.96   34.80
   5  -4 -13  669.93   42.00
  -5   4  13  683.83   41.30
  -5   4  13  609.64   39.70
   4  -4 -13   75.39   18.60
   4  -4 -13   93.09   21.30
  -4   4  13   65.89   17.40
  -4   4  13   49.90   17.00
   3  -4 -13   91.19   22.20
   3  -4 -13  104.69   19.40
  -3   4  13   88.39   18.00
  -3   4  13  105.89   19.60
   2  -4 -13  225.28   29.20
   2  -4 -13  275.37   31.40
  -2   4  13  296.77   30.10
  -2   4  13  282.77   26.60
   1  -4 -13   39.10   17.00
   1  -4 -13   18.60   14.40
  -1   4  13   17.90   12.60
  -1   4  13   28.30   15.70
   0  -4 -13   58.19   18.50
   0  -4 -13  112.39   20.70
   0  -4 -13  105.89   22.30
   0   4  13  113.59   21.90
  -1  -4 -13  361.46   33.30
  -1  -4 -13  318.47   32.60
  -1  -4 -13  254.87   33.30
   1   4  13  309.17   32.60
  -2  -4 -13  151.38   26.30
  -2  -4 -13  144.09   25.50
  -2  -4 -13  173.48   28.20
  -3  -4 -13    2.10   17.60
  -3  -4 -13   20.60   17.00
  -3  -4 -13    5.50   17.90
  -4  -4 -13  135.89   27.50
  -4  -4 -13   49.90   22.70
  10  -5 -13  124.19   27.10
 -10   5  13   76.49   24.00
   9  -5 -13   36.30   17.90
  -9   5  13    7.80   15.60
   8  -5 -13  164.38   28.60
  -8   5  13  129.29   25.40
   7  -5 -13  291.87   33.60
  -7   5  13  267.07   44.90
  -7   5  13  267.67   33.30
   6  -5 -13   84.29   21.80
  -6   5  13   53.49   18.30
  -6   5  13   42.20   17.70
   5  -5 -13   25.90   15.60
  -5   5  13   73.79   17.70
  -5   5  13   50.49   18.40
   4  -5 -13  238.18   29.80
  -4   5  13  158.38   25.80
  -4   5  13  183.28   25.90
   3  -5 -13  144.39   25.00
   3  -5 -13  189.38   28.60
  -3   5  13  211.78   26.40
  -3   5  13  124.69   21.20
   2  -5 -13   -3.60   15.10
   2  -5 -13   18.30   15.80
  -2   5  13    8.50   12.90
  -2   5  13   36.40   15.20
   1  -5 -13  250.77   29.10
   1  -5 -13  300.37   34.40
   1  -5 -13  308.97   32.90
  -1   5  13  329.67   31.80
  -1   5  13  276.77   26.70
   0  -5 -13  302.77   31.20
   0  -5 -13  199.48   29.60
   0  -5 -13  283.07   30.70
   0   5  13  263.47   30.80
  -1  -5 -13   -5.00   14.20
  -1  -5 -13   10.40   14.60
  -1  -5 -13   -1.70   13.50
  -2  -5 -13  236.38   32.80
  -2  -5 -13  128.89   25.20
  -2  -5 -13  100.99   21.50
  -3  -5 -13  128.39   27.30
  -3  -5 -13  201.28   32.20
  10  -6 -13   51.49   20.80
 -10   6  13   75.49   23.40
   9  -6 -13  154.98   27.80
  -9   6  13  120.39   25.50
   8  -6 -13   28.10   18.70
  -8   6  13    8.30   14.90
   7  -6 -13   20.50   17.80
  -7   6  13   45.90   17.50
   6  -6 -13  229.28   31.30
  -6   6  13  213.48   30.10
   5  -6 -13  100.49   23.00
  -5   6  13  101.29   20.90
   4  -6 -13    7.20   15.30
  -4   6  13   15.40   13.80
   3  -6 -13  209.38   29.10
   3  -6 -13  203.18   30.80
  -3   6  13  226.78   28.40
   2  -6 -13  213.08   31.20
   2  -6 -13  216.98   30.80
  -2   6  13  227.88   29.10
  -2   6  13  232.68   27.50
   1  -6 -13   32.60   18.20
   1  -6 -13    4.80   15.80
   1  -6 -13   12.70   15.60
  -1   6  13    8.50   12.30
  -1   6  13   -3.30   12.30
   0  -6 -13  124.69   23.70
   0  -6 -13  118.69   23.00
   0  -6 -13  121.89   23.30
  -1  -6 -13  114.89   23.80
  -1  -6 -13  142.39   27.10
  -1  -6 -13  171.28   26.60
  -2  -6 -13  -14.40   17.80
  -2  -6 -13    9.20   18.40
   9  -7 -13   -1.40   17.50
  -9   7  13   -6.30   15.50
   8  -7 -13  153.28   28.00
  -8   7  13  134.29   25.90
   7  -7 -13   56.69   20.30
  -7   7  13   50.69   19.90
   6  -7 -13   53.19   20.30
  -6   7  13   22.30   17.70
   5  -7 -13  102.79   22.70
  -5   7  13   75.29   21.00
   4  -7 -13  117.49   24.40
  -4   7  13   64.29   20.30
   3  -7 -13    0.50   14.10
  -3   7  13    7.40   13.90
   2  -7 -13   77.49   20.70
   2  -7 -13  123.09   24.90
  -2   7  13   99.09   20.70
   1  -7 -13  207.88   33.90
   1  -7 -13  214.48   28.80
   1  -7 -13  217.78   33.10
  -1   7  13  183.08   27.50
   0  -7 -13   60.39   23.40
   0  -7 -13   39.10   16.60
   0  -7 -13   56.59   20.10
  -1  -7 -13   42.10   20.10
  -1  -7 -13   33.80   20.30
   8  -8 -13  -17.30   16.50
  -8   8  13   22.30   15.90
   7  -8 -13  182.88   31.80
  -7   8  13  185.38   31.00
   6  -8 -13   73.19   21.80
  -6   8  13   47.40   19.40
   5  -8 -13   24.00   17.60
  -5   8  13   -9.70   15.20
   4  -8 -13   46.70   18.80
  -4   8  13   44.50   19.00
   3  -8 -13  177.18   29.10
  -3   8  13  136.39   24.20
   2  -8 -13   16.50   15.30
  -2   8  13   40.60   18.70
   1  -8 -13   60.39   19.00
   1  -8 -13   -6.50   17.30
   1  -8 -13   -6.00   17.70
   0  -8 -13  152.98   28.10
   0  -8 -13  103.19   24.40
   7  -9 -13   21.80   18.40
  -7   9  13  -12.00   17.80
   6  -9 -13   13.90   18.50
  -6   9  13   31.50   21.50
   5  -9 -13  135.79   25.70
  -5   9  13  134.29   25.50
   4  -9 -13   -6.20   15.70
  -4   9  13   29.70   18.30
   3  -9 -13   12.30   14.80
  -3   9  13  -26.20   14.30
  -2   9  13   47.30   20.10
  -1  -9  14  -32.20   18.70
  -1  -9  14   -7.80   19.20
   0  -9  14   35.90   21.80
   0  -9  14   47.10   23.40
   1  -9  14   52.89   22.60
   1  -9  14   62.89   23.30
   2  -9  14    4.40   18.60
   2  -9  14   -8.80   17.80
  -3  -8  14  -52.09   19.80
  -3  -8  14  -36.70   18.50
  -2  -8  14   43.80   25.50
  -2  -8  14  118.99   27.70
  -1  -8  14   43.60   24.10
  -1  -8  14   62.29   24.10
   0  -8  14   -1.70   19.60
   0  -8  14   12.90   19.10
   1  -8  14   49.30   21.90
   1  -8  14   18.80   20.10
   2  -8  14  142.89   28.60
   2  -8  14  142.99   27.10
  -3   8 -14   36.10   19.00
   3  -8  14   36.90   20.30
  -4   8 -14   22.60   18.10
   4  -8  14   37.30   20.30
  -4  -7  14   54.49   24.90
  -4  -7  14  102.19   25.40
  -3  -7  14  153.78   29.60
  -3  -7  14  134.49   30.10
  -2  -7  14   11.40   21.60
  -2  -7  14  -11.50   17.10
  -1  -7  14   72.39   25.50
  -1  -7  14   53.09   21.10
   0  -7  14  149.99   28.80
   0  -7  14  130.89   25.30
   1  -7  14   22.30   19.40
   1  -7  14   98.59   23.50
  -2   7 -14    0.50   16.30
   2  -7  14   40.00   18.20
   2  -7  14  -14.00   16.20
  -3   7 -14  191.78   28.70
   3  -7  14  147.99   28.00
  -4   7 -14  115.19   25.90
   4  -7  14   92.79   24.80
  -5   7 -14   35.30   20.70
   5  -7  14   29.10   21.90
  -6  -6  14   27.20   21.50
  -6  -6  14   76.69   24.80
  -5  -6  14  131.79   29.10
  -5  -6  14  108.79   26.30
  -4  -6  14   18.10   17.60
  -4  -6  14  -19.20   17.40
   3   6 -14   59.49   23.30
  -3  -6  14   56.89   23.70
  -3  -6  14   67.69   23.30
  -2  -6  14  163.98   30.60
  -2  -6  14  251.57   34.80
  -1  -6  14   72.39   21.50
  -1  -6  14   76.79   25.10
   0  -6  14    5.20   19.40
   0  -6  14  -12.40   13.50
  -1   6 -14  254.67   29.20
   1  -6  14  297.47   37.00
   1  -6  14  229.18   32.40
  -2   6 -14   99.49   22.70
   2  -6  14  136.09   27.20
  -3   6 -14  -21.00   14.40
   3  -6  14   10.80   16.70
  -4   6 -14  105.89   25.20
   4  -6  14  272.57   38.50
  -5   6 -14   77.39   24.80
   5  -6  14  129.49   28.70
  -7  -5  14  158.68   28.50
  -6  -5  14  -17.30   16.90
  -6  -5  14    5.50   17.30
  -5  -5  14   15.20   18.90
  -5  -5  14   53.49   22.00
   4   5 -14  216.78   31.00
  -4  -5  14  286.57   32.50
  -4  -5  14  199.18   32.90
   3   5 -14   67.99   22.20
  -3  -5  14   62.99   21.00
  -3  -5  14   68.89   24.50
  -2  -5  14   20.20   17.20
  -2  -5  14  -15.20   18.80
  -1  -5  14  258.07   32.40
  -1  -5  14  254.07   36.50
   0   5 -14  197.28   27.00
   0  -5  14  156.08   28.00
   0  -5  14  236.38   29.40
  -1   5 -14   -1.60   13.70
   1  -5  14   13.00   17.30
   1  -5  14   12.20   15.90
  -2   5 -14   64.19   19.00
   2  -5  14  130.39   27.10
  -3   5 -14  213.78   33.30
   3  -5  14  247.48   36.00
  -4   5 -14   69.59   23.80
   4  -5  14   81.59   25.50
  -5   5 -14   14.80   20.60
   5  -5  14   27.00   21.20
  -7  -4  14   37.00   21.00
  -7  -4  14   40.70   20.30
  -6  -4  14  187.08   31.10
  -6  -4  14  121.99   26.30
   5   4 -14   98.79   20.50
  -5  -4  14   87.59   25.70
  -5  -4  14   76.19   21.20
   4   4 -14   -3.70   14.80
  -4  -4  14   -5.00   17.90
  -4  -4  14    5.20   13.90
   3   4 -14  181.18   31.80
  -3  -4  14   93.19   20.40
  -3  -4  14  179.88   32.00
  -2  -4  14  292.77   31.60
  -2  -4  14  311.97   38.40
   1   4 -14   30.40   14.40
  -1  -4  14   20.30   18.30
  -1  -4  14   30.90   15.10
   0   4 -14   78.49   17.80
   0  -4  14   84.49   19.70
   0  -4  14   81.79   21.30
  -1   4 -14  194.78   27.90
   1  -4  14  242.58   34.90
  -2   4 -14   90.49   21.60
   2  -4  14   86.39   23.00
  -3   4 -14   41.00   18.60
   3  -4  14   85.19   22.20
  -4   4 -14  287.97   36.50
   4  -4  14  329.27   40.60
  -5   4 -14  186.08   32.30
   5  -4  14  221.08   37.80
  -6   4 -14   16.40   22.00
  -6   4 -14   -1.30   17.10
   6  -4  14   13.40   20.50
  -8  -3  14  203.58   35.80
  -7  -3  14   79.59   23.70
  -7  -3  14   57.09   19.90
   6   3 -14  -21.00   12.40
  -6  -3  14  -11.40   13.90
  -6  -3  14  -14.60   14.80
   5   3 -14  166.38   27.10
  -5  -3  14  115.69   21.50
  -5  -3  14  154.58   28.90
   4   3 -14  266.77   32.90
  -4  -3  14  354.36   30.50
  -4  -3  14  317.97   37.80
   3   3 -14   14.20   17.80
  -3  -3  14   50.49   21.70
  -3  -3  14   22.50   15.00
   2   3 -14  205.38   23.20
  -2  -3  14  112.69   26.70
  -2  -3  14  145.49   24.90
   1   3 -14  271.17   27.60
  -1  -3  14  327.37   29.30
  -1  -3  14  280.17   37.00
   0   3 -14  101.59   20.50
   0  -3  14  170.08   24.40
   0  -3  14   92.59   23.30
  -1   3 -14  -13.00   13.70
   1  -3  14   -3.10   16.30
  -2   3 -14  146.09   25.10
   2  -3  14  158.78   29.10
  -3   3 -14  135.59   25.50
   3  -3  14  155.18   28.50
  -4   3 -14   -2.60   18.90
   4  -3  14   -5.90   16.70
  -5   3 -14   84.29   25.50
  -5   3 -14   50.59   21.40
   5  -3  14  122.39   27.70
  -6   3 -14   67.59   23.80
  -6   3 -14   41.00   23.70
   6  -3  14  138.39   30.10
  -8  -2  14   37.40   19.50
   7   2 -14  101.69   21.60
  -7  -2  14   77.89   23.50
   6   2 -14  175.58   28.00
  -6  -2  14  112.69   29.70
  -6  -2  14  165.48   29.60
   5   2 -14  114.49   21.90
  -5  -2  14   70.39   21.60
  -5  -2  14   85.39   17.80
   4   2 -14   99.09   22.10
  -4  -2  14   76.89   17.20
  -4  -2  14   35.20   19.10
   3   2 -14  474.45   38.80
   3   2 -14  470.75   29.90
  -3  -2  14  423.26   40.90
  -3  -2  14  456.45   30.90
   2   2 -14  366.46   27.90
  -2  -2  14  312.07   26.80
  -2  -2  14  314.27   37.60
   1   2 -14  -10.70   11.70
  -1  -2  14    2.70   18.50
  -1  -2  14   26.90   13.10
   0   2 -14  312.37   29.40
   0  -2  14  248.28   33.90
  -1   2 -14  166.28   27.40
   1  -2  14  173.48   32.20
  -2   2 -14  -16.00   14.10
   2  -2  14   17.80   18.80
  -3   2 -14  221.38   33.60
   3  -2  14  217.88   35.90
  -4   2 -14  166.98   34.60
  -4   2 -14  132.09   26.00
   4  -2  14  137.79   28.50
  -5   2 -14    7.20   19.10
  -5   2 -14    6.10   16.80
   5  -2  14   37.90   19.30
  -6   2 -14   62.19   24.20
  -9  -1  14   84.89   25.00
   8   1 -14  296.57   31.50
  -8  -1  14  235.58   34.00
   7   1 -14   39.00   16.90
  -7  -1  14   49.90   20.80
   6   1 -14   52.29   17.90
  -6  -1  14   75.89   23.20
   5   1 -14  360.96   36.10
  -5  -1  14  369.76   38.60
   4   1 -14  172.58   21.50
   4   1 -14  209.88   30.20
  -4  -1  14  169.78   29.40
   3   1 -14   20.60   16.20
   3   1 -14   18.10   12.00
  -3  -1  14    9.90   18.90
   2   1 -14  361.36   30.10
   2   1 -14  362.76   37.20
  -2  -1  14  369.96   25.10
  -2  -1  14  349.57   37.60
   1   1 -14  387.16   31.40
  -1  -1  14  436.06   39.60
   0   1 -14   -1.50   14.50
   0  -1  14    1.80   15.60
  -1   1 -14  432.86   34.70
   1  -1  14  408.46   38.80
  -2   1 -14  607.74   42.00
   2  -1  14  641.64   46.60
  -3   1 -14   68.29   22.60
   3  -1  14   83.19   23.10
  -4   1 -14   35.50   19.90
  -4   1 -14   26.20   17.40
   4  -1  14   60.89   22.40
  -5   1 -14   60.59   23.10
  -5   1 -14   91.49   23.10
   5  -1  14   49.50   21.70
   9   0 -14  111.49   31.40
  -9   0  14   48.50   20.00
   8   0 -14   42.70   16.80
  -8   0  14  -19.30   15.90
   7   0 -14  237.08   29.20
  -7   0  14  244.28   34.40
   6   0 -14  309.57   32.00
  -6   0  14  229.98   34.50
   5   0 -14   32.60   16.60
  -5   0  14   10.00   17.30
   4   0 -14  322.67   27.20
   4   0 -14  316.77   33.20
  -4   0  14  262.57   34.70
   3   0 -14  354.86   29.70
   3   0 -14  437.06   38.00
  -3   0  14  346.57   37.30
   2   0 -14  108.89   22.50
   2   0 -14  147.69   22.20
  -2   0  14  197.28   32.90
   1   0 -14  156.18   25.20
  -1   0  14  121.09   18.70
  -1   0  14   97.59   22.90
   0   0 -14  486.55   36.60
   0   0  14  464.65   37.50
  -1   0 -14   75.29   20.50
   1   0  14   82.49   22.80
  -2   0 -14  132.09   23.40
   2   0  14  171.68   29.30
  -3   0 -14  313.27   36.70
  -3   0 -14  239.38   34.00
   3   0  14  366.16   39.70
  -4   0 -14   54.79   23.80
  -4   0 -14   75.29   21.40
   4   0  14  193.28   33.10
  -5   0 -14    4.40   20.80
  -5   0 -14   -6.20   15.80
   9  -1 -14  234.98   29.60
  -9   1  14  248.48   34.90
   8  -1 -14  192.58   29.00
  -8   1  14  209.68   33.20
   7  -1 -14   30.60   16.30
  -7   1  14    3.70   16.30
   6  -1 -14   91.69   21.80
  -6   1  14   48.00   21.30
   5  -1 -14  233.08   31.40
  -5   1  14  160.18   27.30
   4  -1 -14    2.70   11.70
   4  -1 -14   18.40   15.50
  -4   1  14   13.90   18.00
   3  -1 -14   27.40   15.10
   3  -1 -14   35.90   16.60
  -3   1  14   50.39   15.40
  -3   1  14   13.00   18.30
   2  -1 -14  518.85   37.90
   2  -1 -14  560.34   35.60
  -2   1  14  490.75   31.20
  -2   1  14  550.44   40.80
   1  -1 -14  117.49   24.50
   1  -1 -14   88.29   20.20
  -1   1  14  108.99   17.20
  -1   1  14  141.19   24.50
   0  -1 -14   71.19   20.10
   0   1  14   44.40   18.70
  -1  -1 -14  503.35   39.20
   1   1  14  502.45   41.90
  -2  -1 -14  122.39   25.10
   2   1  14  141.69   26.10
  -3  -1 -14  -12.80   14.50
  -3  -1 -14   14.90   18.90
   3   1  14  -11.40   15.10
  -4  -1 -14  143.49   26.50
  -4  -1 -14  196.08   30.80
   4   1  14  125.09   27.60
  -5  -1 -14  176.08   30.90
  -5  -1 -14  187.98   31.90
  10  -2 -14  156.38   26.10
 -10   2  14  261.87   35.40
   9  -2 -14   16.60   14.80
  -9   2  14  -15.40   14.30
   8  -2 -14  109.99   22.00
  -8   2  14  162.98   28.00
   7  -2 -14  139.29   24.30
  -7   2  14  131.89   25.60
   6  -2 -14   14.90   15.90
  -6   2  14    6.70   15.30
  -6   2  14   33.90   17.90
   5  -2 -14  214.58   30.90
  -5   2  14  186.48   31.20
  -5   2  14  175.58   26.60
   4  -2 -14  535.45   40.90
   4  -2 -14  553.54   36.60
  -4   2  14  533.85   40.00
  -4   2  14  547.45   36.40
   3  -2 -14  253.97   29.30
   3  -2 -14  272.77   29.20
  -3   2  14  261.67   27.60
  -3   2  14  221.88   30.80
   2  -2 -14   58.19   20.00
   2  -2 -14   61.59   17.90
  -2   2  14   50.89   18.00
  -2   2  14   33.00   14.00
   1  -2 -14  104.89   21.40
   1  -2 -14  148.49   25.40
  -1   2  14  193.78   21.80
  -1   2  14  191.78   31.90
   0  -2 -14  263.17   31.80
   0  -2 -14  208.48   32.40
   0   2  14  277.47   33.90
  -1  -2 -14    8.60   15.90
   1   2  14   13.20   16.80
  -2  -2 -14   38.50   20.40
  -2  -2 -14   44.50   20.70
   2   2  14   96.29   23.40
  -3  -2 -14  276.27   36.60
  -3  -2 -14  188.38   29.30
   3   2  14  178.18   30.70
  -4  -2 -14    9.30   17.70
  -4  -2 -14   -4.80   18.80
  10  -3 -14   54.79   19.00
 -10   3  14   89.89   24.50
 -10   3  14  131.69   28.20
   9  -3 -14  206.08   31.00
  -9   3  14  171.28   31.40
  -9   3  14  151.08   27.80
   8  -3 -14   47.40   19.40
  -8   3  14   38.50   19.50
  -8   3  14   52.69   21.00
   7  -3 -14   29.80   17.50
  -7   3  14   14.40   16.80
  -7   3  14   -2.90   15.60
   6  -3 -14  296.37   33.10
  -6   3  14  320.17   33.70
  -6   3  14  280.07   34.50
   5  -3 -14  194.68   29.60
  -5   3  14  144.09   24.50
  -5   3  14  159.18   24.80
   4  -3 -14   46.10   16.30
   4  -3 -14   30.40   18.20
  -4   3  14   39.90   18.70
  -4   3  14   18.90   14.80
   3  -3 -14  439.56   37.20
   3  -3 -14  383.56   33.50
  -3   3  14  408.36   31.10
  -3   3  14  387.06   33.70
   2  -3 -14   95.69   20.40
   2  -3 -14   97.99   21.40
  -2   3  14  100.99   18.30
  -2   3  14   87.59   19.70
   1  -3 -14    9.90   14.10
   1  -3 -14    6.20   15.70
  -1   3  14   14.60   16.10
  -1   3  14    4.60   10.90
   0  -3 -14  121.19   22.20
   0  -3 -14  182.18   30.70
   0   3  14  175.48   28.00
  -1  -3 -14  273.47   33.60
  -1  -3 -14  278.37   34.80
   1   3  14  294.37   36.00
  -2  -3 -14  124.69   24.10
  -2  -3 -14  146.59   26.70
  -2  -3 -14  168.08   27.90
   2   3  14  211.58   33.50
  -3  -3 -14  -14.00   16.50
  -3  -3 -14   31.00   19.50
  -3  -3 -14  -16.90   16.00
  -4  -3 -14   92.49   24.90
  -4  -3 -14  132.59   27.20
   9  -4 -14    7.90   15.20
  -9   4  14   16.80   16.60
  -9   4  14   -7.90   16.90
   8  -4 -14  152.48   26.60
  -8   4  14  154.28   27.50
  -8   4  14  151.18   26.80
   7  -4 -14  195.08   30.20
  -7   4  14  163.38   27.40
  -7   4  14  129.59   24.50
   6  -4 -14   13.60   14.70
  -6   4  14  -23.60   12.10
  -6   4  14   -9.70   15.70
   5  -4 -14  364.26   33.00
  -5   4  14  336.97   34.00
  -5   4  14  334.17   33.00
   4  -4 -14  317.37   34.20
   4  -4 -14  342.67   32.40
  -4   4  14  256.07   29.60
  -4   4  14  273.77   29.60
   3  -4 -14   27.50   16.00
   3  -4 -14   16.40   16.60
  -3   4  14   -6.80   11.80
  -3   4  14   15.20   14.40
   2  -4 -14  156.08   26.10
   2  -4 -14  214.08   30.30
  -2   4  14  152.48   22.60
  -2   4  14  146.99   26.20
   1  -4 -14  283.17   32.80
   1  -4 -14  284.57   34.40
  -1   4  14  282.97   33.30
  -1   4  14  283.17   26.00
   0  -4 -14   73.29   21.30
   0  -4 -14   90.99   23.50
   0   4  14   84.49   21.30
  -1  -4 -14   21.80   17.10
  -1  -4 -14   34.50   17.30
   1   4  14   41.50   18.10
  -2  -4 -14  119.09   26.10
  -2  -4 -14  165.28   29.10
  -2  -4 -14  135.49   25.50
  -3  -4 -14  110.99   25.50
  -3  -4 -14  113.99   25.50
  -3  -4 -14   87.29   24.20
   9  -5 -14   84.59   22.60
  -9   5  14   75.09   22.40
   8  -5 -14    5.30   17.80
  -8   5  14    4.60   16.80
   7  -5 -14  103.99   23.20
  -7   5  14  111.29   23.70
   6  -5 -14  429.26   38.10
  -6   5  14  358.36   45.30
  -6   5  14  391.86   35.70
   5  -5 -14   36.20   18.50
  -5   5  14   76.39   18.70
  -5   5  14   66.59   19.30
   4  -5 -14   19.70   16.90
   4  -5 -14   32.90   18.10
  -4   5  14   34.40   16.20
  -4   5  14   47.60   16.20
   3  -5 -14  181.78   30.20
   3  -5 -14  189.38   30.50
  -3   5  14  216.88   27.00
  -3   5  14  273.37   29.70
   2  -5 -14   63.99   20.40
   2  -5 -14   73.49   20.20
  -2   5  14   49.40   15.70
  -2   5  14   88.69   19.70
   1  -5 -14   -6.20   15.50
   1  -5 -14   18.60   18.30
  -1   5  14   19.40   15.70
   0  -5 -14  172.08   29.80
   0  -5 -14  223.08   29.10
   0   5  14  266.17   33.00
  -1  -5 -14   53.29   20.10
  -1  -5 -14  125.69   26.20
  -1  -5 -14   80.89   32.40
   1   5  14  109.89   23.20
  -2  -5 -14   -1.50   15.60
  -2  -5 -14  -13.60   16.80
  -2  -5 -14   44.40   20.10
   9  -6 -14   43.50   19.70
  -9   6  14   25.40   19.10
   8  -6 -14  104.99   24.20
  -8   6  14  106.89   25.00
   7  -6 -14   42.70   19.10
  -7   6  14   45.10   18.70
   6  -6 -14   83.39   21.60
  -6   6  14   85.69   22.10
   5  -6 -14  261.77   33.00
  -5   6  14  264.67   33.60
   4  -6 -14  100.89   21.80
  -4   6  14  181.08   26.20
   3  -6 -14  -15.70   13.70
   3  -6 -14    3.00   15.60
  -3   6  14  -10.40   13.40
   2  -6 -14  170.28   28.80
   2  -6 -14  198.98   30.10
  -2   6  14  141.79   22.70
   1  -6 -14   93.79   23.20
   1  -6 -14  128.19   24.10
   0  -6 -14    4.90   15.60
   0  -6 -14  -20.10   15.30
  -1  -6 -14  107.89   27.30
  -1  -6 -14   80.39   24.10
  -1  -6 -14  135.29   27.60
   8  -7 -14   46.30   22.20
  -8   7  14   67.69   20.80
   7  -7 -14  189.78   32.30
  -7   7  14  243.38   34.50
   6  -7 -14   68.69   22.00
  -6   7  14   57.09   21.20
   5  -7 -14   -0.30   15.10
  -5   7  14   10.60   15.90
   4  -7 -14  102.79   22.90
  -4   7  14   90.19   22.70
   3  -7 -14  191.38   29.90
  -3   7  14   99.09   21.40
   2  -7 -14  -12.60   13.80
   2  -7 -14  -14.10   14.90
  -2   7  14   -6.30   13.30
   1  -7 -14  100.69   25.00
   1  -7 -14   82.99   22.00
   0  -7 -14  195.88   31.20
   7  -8 -14   17.10   19.50
  -7   8  14   29.70   19.50
   6  -8 -14   67.99   21.40
  -6   8  14   55.59   21.40
   5  -8 -14  136.69   26.10
  -5   8  14   87.39   23.80
   4  -8 -14    9.90   15.90
  -4   8  14  -12.00   14.30
   3  -8 -14   63.39   21.00
  -3   8  14   70.99   20.80
   2  -8 -14  192.98   29.10
  -1  -8  15   65.69   24.50
  -1  -8  15   52.99   25.30
   0  -8  15   78.29   26.30
   0  -8  15  129.79   25.90
   1  -8  15   -3.80   18.30
   1  -8  15  -13.20   15.50
   2  -8  15  103.19   23.60
   2  -8  15   67.29   24.10
  -3  -7  15  136.99   28.40
  -3  -7  15   86.99   27.80
  -2  -7  15   31.50   24.40
  -2  -7  15   77.09   24.30
  -1  -7  15   12.00   19.40
  -1  -7  15  -19.60   19.10
   0  -7  15    1.00   19.20
   0  -7  15   35.50   18.90
   1  -7  15   99.99   25.30
   1  -7  15  144.99   27.30
   2  -7  15   14.80   19.50
  -3   7 -15  -13.60   19.60
   3  -7  15   29.80   19.60
  -5  -6  15   35.30   25.40
  -5  -6  15   49.60   20.40
  -4  -6  15  174.18   33.00
  -4  -6  15  198.58   34.20
   3   6 -15   17.60   27.60
  -3  -6  15    9.10   17.60
  -3  -6  15   21.50   21.30
  -2  -6  15   45.10   19.70
  -2  -6  15   14.10   21.60
  -1  -6  15  157.88   31.10
  -1  -6  15  146.19   26.30
   0  -6  15   36.60   18.20
   0  -6  15   37.50   21.70
  -1   6 -15   11.00   18.70
   1  -6  15    8.60   19.10
   1  -6  15   29.50   18.30
  -2   6 -15  105.59   23.30
   2  -6  15  156.88   29.30
  -3   6 -15  102.89   24.60
   3  -6  15   83.59   23.60
  -4   6 -15  -33.40   18.70
   4  -6  15    4.60   21.50
  -6  -5  15  176.28   33.70
  -6  -5  15  155.88   28.50
  -5  -5  15   41.30   23.70
  -5  -5  15   56.49   20.60
   4   5 -15   77.59   23.50
  -4  -5  15   76.59   28.30
  -4  -5  15  101.79   24.20
   3   5 -15  147.49   26.80
  -3  -5  15  153.08   26.20
  -3  -5  15  118.29   27.60
  -2  -5  15  178.08   29.60
  -2  -5  15   53.39   24.40
  -1  -5  15   17.80   22.90
  -1  -5  15   -1.20   13.70
   0   5 -15  202.58   31.10
   0  -5  15  199.58   32.40
   0  -5  15  210.38   29.40
  -1   5 -15  189.08   30.70
   1  -5  15  221.58   36.00
  -2   5 -15   -1.30   16.10
   2  -5  15   -0.10   17.60
  -3   5 -15   56.19   21.20
   3  -5  15   91.69   24.90
  -4   5 -15  209.88   35.40
   4  -5  15  196.78   34.00
  -7  -4  15    5.50   18.40
  -6  -4  15   43.30   23.70
  -6  -4  15    1.60   18.00
   5   4 -15  175.18   27.60
  -5  -4  15  266.17   40.10
  -5  -4  15  279.57   32.60
   4   4 -15   95.89   23.20
  -4  -4  15   89.99   22.20
  -4  -4  15  105.39   27.80
   3   4 -15  -31.80   15.60
  -3  -4  15   -7.30   14.70
  -3  -4  15   11.80   19.40
  -2  -4  15  166.38   26.90
  -2  -4  15  178.78   32.80
   1   4 -15  266.37   30.10
  -1  -4  15  231.78   37.30
  -1  -4  15  201.68   28.40
   0   4 -15    9.40   15.40
   0  -4  15   65.79   22.30
   0  -4  15   41.00   16.70
  -1   4 -15   23.30   16.80
   1  -4  15   46.10   21.10
  -2   4 -15  150.08   25.60
   2  -4  15  188.58   31.60
  -3   4 -15   42.80   21.20
   3  -4  15   80.59   24.60
  -4   4 -15  -10.20   19.70
   4  -4  15   21.00   21.20
  -5   4 -15  112.49   28.10
   5  -4  15  173.58   32.30
  -7  -3  15  129.79   28.50
   6   3 -15   63.39   19.90
  -6  -3  15   27.50   23.10
   5   3 -15   26.30   16.60
  -5  -3  15   -4.70   15.00
  -5  -3  15    6.30   19.80
   4   3 -15  174.38   29.30
  -4  -3  15  180.38   32.90
  -4  -3  15  191.98   28.60
   3   3 -15  251.27   34.00
  -3  -3  15  208.28   27.30
  -3  -3  15  223.78   37.80
   2   3 -15   -0.30   15.30
  -2  -3  15   10.60   13.00
  -2  -3  15    4.60   19.00
   1   3 -15  122.39   20.80
  -1  -3  15  145.09   24.50
  -1  -3  15  130.79   27.50
   0   3 -15  262.07   30.00
   0  -3  15  231.38   35.50
  -1   3 -15   53.39   18.70
   1  -3  15   21.00   17.60
  -2   3 -15   32.90   18.60
   2  -3  15   21.60   19.70
  -3   3 -15  185.78   30.50
   3  -3  15  278.27   39.30
  -4   3 -15  134.89   28.30
   4  -3  15  123.29   28.90
  -5   3 -15   -8.30   18.80
   5  -3  15   21.60   20.20
  -8  -2  15  120.19   28.70
   7   2 -15   14.30   15.80
  -7  -2  15    3.70   18.90
   6   2 -15  170.58   26.70
  -6  -2  15  128.39   28.60
   5   2 -15  289.87   32.60
  -5  -2  15  208.38   33.20
   4   2 -15   11.10   16.90
  -4  -2  15   -3.50   19.20
   3   2 -15  217.58   32.80
  -3  -2  15  257.57   38.20
   2   2 -15  491.15   33.60
  -2  -2  15  591.84   41.90
  -2  -2  15  442.46   40.80
   1   2 -15  145.29   24.50
  -1  -2  15  114.79   26.80
   0   2 -15    0.30   14.50
   0  -2  15   11.80   17.80
  -1   2 -15  200.88   29.60
   1  -2  15  198.98   34.20
  -2   2 -15  183.18   31.00
   2  -2  15  202.78   35.80
  -3   2 -15  -14.60   17.20
   3  -2  15    3.50   18.90
  -4   2 -15  119.39   27.10
   4  -2  15  110.29   27.00
  -5   2 -15  116.39   28.60
   5  -2  15  149.29   29.70
   8   1 -15  147.39   27.90
  -8  -1  15  111.59   26.80
   7   1 -15  307.07   33.50
  -7  -1  15  305.47   38.70
   6   1 -15   66.39   21.00
  -6  -1  15   54.69   22.10
   5   1 -15   69.19   20.80
  -5  -1  15   46.40   21.10
   4   1 -15  275.37   35.70
  -4  -1  15  253.97   36.20
   3   1 -15  137.89   26.80
   3   1 -15  152.38   24.00
  -3  -1  15  133.79   27.60
   2   1 -15   -2.50   17.00
   2   1 -15    2.80   13.00
  -2  -1  15   -4.60   18.10
   1   1 -15  303.07   29.50
  -1  -1  15  309.97   36.40
   0   1 -15  206.08   29.10
   0  -1  15  169.58   29.20
  -1   1 -15   14.80   17.30
   1  -1  15  -12.50   17.30
  -2   1 -15  244.48   32.80
   2  -1  15  187.18   34.50
  -3   1 -15  213.78   34.90
   3  -1  15  191.88   32.00
  -4   1 -15  -14.10   18.50
   4  -1  15   47.20   22.10
  -9   0  15  101.79   27.40
   8   0 -15   87.69   20.70
  -8   0  15   51.39   22.50
   7   0 -15   33.30   18.30
  -7   0  15   25.20   22.00
   6   0 -15  120.59   23.80
  -6   0  15  245.38   37.60
   5   0 -15  223.48   32.40
  -5   0  15  156.68   29.80
   4   0 -15    1.10   16.50
   4   0 -15    5.50   12.60
  -4   0  15  -23.40   16.90
   3   0 -15  108.59   19.60
   3   0 -15  136.79   26.50
  -3   0  15  117.99   26.10
   2   0 -15  653.03   40.00
   2   0 -15  652.73   45.70
  -2   0  15  660.13   46.60
   1   0 -15   40.60   16.90
  -1   0  15   17.10   11.80
  -1   0  15   25.20   19.10
   0   0 -15  223.38   30.60
   0   0  15  225.88   34.40
  -1   0 -15  491.95   39.50
   1   0  15  388.36   40.20
  -2   0 -15   26.60   19.70
   2   0  15   34.10   20.90
  -3   0 -15   56.69   22.10
   3   0  15   91.29   25.00
  -4   0 -15  121.59   26.50
   4   0  15  124.39   25.70
   9  -1 -15   19.20   17.60
  -9   1  15   22.50   19.40
   8  -1 -15  191.88   29.30
  -8   1  15  232.68   38.50
   7  -1 -15   77.09   22.00
  -7   1  15   92.19   24.50
   6  -1 -15    1.20   14.40
  -6   1  15  -31.70   15.80
   5  -1 -15  130.59   26.10
   5  -1 -15   90.59   18.40
  -5   1  15  111.99   25.80
   4  -1 -15  211.78   25.90
   4  -1 -15  228.98   32.70
  -4   1  15  187.38   33.10
   3  -1 -15  178.48   26.70
   3  -1 -15  159.48   26.00
  -3   1  15  152.98   22.00
  -3   1  15  137.49   26.80
   2  -1 -15   53.59   16.80
   2  -1 -15   59.19   22.10
  -2   1  15   73.79   17.00
  -2   1  15   84.59   22.20
   1  -1 -15  140.89   26.10
   1  -1 -15  122.09   21.70
  -1   1  15  173.58   23.30
  -1   1  15  180.48   30.70
   0  -1 -15   56.89   19.50
   0   1  15   61.09   21.20
  -1  -1 -15  133.69   25.30
   1   1  15  125.49   26.50
  -2  -1 -15  335.07   37.30
   2   1  15  265.57   37.10
  -3  -1 -15  114.09   25.10
   3   1  15  116.59   27.70
  -4  -1 -15   14.60   19.00
   4   1  15   21.40   20.70
   9  -2 -15  202.18   33.00
  -9   2  15  130.39   27.40
  -9   2  15  198.58   33.30
   8  -2 -15   22.70   18.00
  -8   2  15   -3.20   15.10
  -8   2  15   18.00   19.40
   7  -2 -15  104.69   22.70
  -7   2  15  114.09   25.40
  -7   2  15  102.29   25.50
   6  -2 -15  224.38   31.40
  -6   2  15  198.58   29.20
  -6   2  15  199.48   35.60
   5  -2 -15   18.60   18.00
  -5   2  15  -23.60   17.60
  -5   2  15   28.70   14.90
   4  -2 -15  215.88   32.80
   4  -2 -15  151.78   23.30
  -4   2  15  178.08   26.20
  -4   2  15  144.99   26.40
   3  -2 -15  422.86   35.10
   3  -2 -15  389.76   37.40
  -3   2  15  373.36   36.90
  -3   2  15  418.46   31.90
   2  -2 -15  110.99   21.70
   2  -2 -15   88.59   22.70
  -2   2  15   69.99   21.00
  -2   2  15   69.39   16.90
   1  -2 -15   17.40   16.50
   1  -2 -15   34.00   16.60
  -1   2  15   55.89   19.20
   0  -2 -15  191.68   32.90
   0  -2 -15  224.38   31.90
   0   2  15  296.47   37.10
  -1  -2 -15   91.69   23.20
  -1  -2 -15   93.69   24.60
   1   2  15   97.59   25.00
  -2  -2 -15   36.80   19.80
   2   2  15   -8.60   15.60
  -3  -2 -15   98.99   27.10
   3   2  15  124.89   27.90
   9  -3 -15  114.09   25.10
  -9   3  15   82.59   25.30
  -9   3  15  119.69   27.10
   8  -3 -15  294.77   35.00
  -8   3  15  305.17   39.60
  -8   3  15  300.47   38.30
   7  -3 -15   56.89   21.60
  -7   3  15   16.10   19.70
  -7   3  15   23.90   16.40
   6  -3 -15   81.39   22.00
  -6   3  15   19.50   20.40
  -6   3  15   93.79   23.70
   5  -3 -15  321.87   35.00
  -5   3  15  258.27   34.10
  -5   3  15  248.48   30.70
   4  -3 -15  118.79   24.50
   4  -3 -15   93.59   21.30
  -4   3  15   98.89   22.60
  -4   3  15  136.79   23.60
   3  -3 -15   15.00   15.80
   3  -3 -15   11.30   15.90
  -3   3  15   -6.80   15.20
  -3   3  15   -1.40   12.80
   2  -3 -15  225.98   32.60
   2  -3 -15  244.98   33.20
  -2   3  15  227.58   31.30
  -2   3  15  252.87   26.80
   1  -3 -15  224.48   32.30
   1  -3 -15  213.38   32.20
  -1   3  15  300.07   33.70
   0  -3 -15    5.70   18.00
   0  -3 -15   10.70   15.40
   0   3  15   13.50   18.00
  -1  -3 -15  101.09   23.20
  -1  -3 -15  172.18   29.50
   1   3  15  124.69   25.20
  -2  -3 -15  143.79   26.00
  -2  -3 -15  153.48   28.90
   2   3  15  260.37   33.40
  -3  -3 -15   29.50   21.70
  -3  -3 -15   33.30   21.40
   9  -4 -15   56.99   20.80
  -9   4  15   37.20   22.40
   8  -4 -15   18.80   18.40
  -8   4  15    1.70   17.40
  -8   4  15   -5.60   18.80
   7  -4 -15  201.68   32.00
  -7   4  15  177.38   28.30
  -7   4  15  110.49   25.20
   6  -4 -15  151.28   27.60
  -6   4  15  117.39   25.00
  -6   4  15   60.89   19.60
   5  -4 -15   17.70   16.60
  -5   4  15   -7.30   15.50
  -5   4  15    9.60   15.00
   4  -4 -15  243.48   31.70
   4  -4 -15  194.08   32.00
  -4   4  15  232.28   28.00
  -4   4  15  190.48   28.50
   3  -4 -15  213.88   31.10
   3  -4 -15  233.28   33.70
  -3   4  15  191.98   29.10
  -3   4  15  143.09   24.90
   2  -4 -15    8.30   17.10
   2  -4 -15   25.40   17.70
  -2   4  15  -27.80   10.90
  -2   4  15    6.30   14.50
   1  -4 -15   96.99   22.00
   1  -4 -15   79.29   22.80
  -1   4  15   68.39   21.30
   0  -4 -15  245.58   32.90
   0  -4 -15  247.28   34.70
   0   4  15  189.48   32.60
  -1  -4 -15   99.09   23.70
  -1  -4 -15   69.59   21.30
   1   4  15   95.09   22.40
  -2  -4 -15   14.00   17.30
  -2  -4 -15    6.60   18.10
   8  -5 -15   66.59   21.90
  -8   5  15   59.19   22.10
   7  -5 -15    0.40   17.40
  -7   5  15   14.50   16.60
   6  -5 -15  179.88   31.70
  -6   5  15  138.39   25.80
   5  -5 -15  256.07   31.50
  -5   5  15  192.88   29.40
   4  -5 -15   35.00   18.00
   4  -5 -15   67.69   20.60
  -4   5  15   41.80   17.10
  -4   5  15   40.00   16.40
   3  -5 -15  109.19   23.20
   3  -5 -15   98.09   24.90
  -3   5  15   62.29   18.10
  -3   5  15   85.69   19.70
   2  -5 -15  195.58   32.90
   2  -5 -15  185.68   29.90
  -2   5  15  197.18   30.60
  -2   5  15  202.28   27.30
   1  -5 -15   42.80   19.30
   1  -5 -15   19.00   18.40
  -1   5  15   28.10   17.70
   0  -5 -15   61.89   22.80
   0  -5 -15   81.29   21.20
   0   5  15   55.89   19.60
  -1  -5 -15  199.58   33.90
  -1  -5 -15  139.29   26.00
   8  -6 -15   53.19   21.50
  -8   6  15   35.50   18.80
   7  -6 -15  118.29   25.90
  -7   6  15  118.49   26.20
   6  -6 -15   26.90   18.10
  -6   6  15   31.10   18.20
   5  -6 -15   48.50   20.60
  -5   6  15   94.29   22.90
   4  -6 -15  248.18   33.80
  -4   6  15  306.87   31.00
   3  -6 -15   84.49   22.90
   3  -6 -15   79.99   21.90
  -3   6  15  116.49   23.20
   2  -6 -15    4.70   18.60
   2  -6 -15   22.90   18.10
  -2   6  15   -9.20   15.90
   1  -6 -15  144.09   26.30
   1  -6 -15  129.59   26.80
   0  -6 -15   61.89   22.80
   0  -6 -15  121.09   25.80
   7  -7 -15   18.10   20.50
  -7   7  15   40.00   20.00
   6  -7 -15  176.88   30.90
  -6   7  15  115.79   24.00
   5  -7 -15  152.88   27.10
  -5   7  15  103.49   23.10
   4  -7 -15   15.00   17.80
  -4   7  15   -6.20   14.60
   3  -7 -15  109.09   24.60
  -3   7  15  135.99   24.40
   2  -7 -15   31.40   18.70
   2  -7 -15   75.29   21.90
  -2  -7  16   62.19   23.80
  -2  -7  16   64.79   28.60
  -1  -7  16   98.29   29.70
  -1  -7  16  110.49   25.10
   0  -7  16    5.40   17.30
   0  -7  16    4.90   20.70
   1  -7  16  145.59   30.00
   1  -7  16  100.09   24.90
  -4  -6  16  123.59   32.50
  -4  -6  16   82.09   25.70
  -3  -6  16  112.39   30.50
  -3  -6  16  133.39   27.20
  -2  -6  16   -6.80   21.40
  -2  -6  16   18.50   19.20
  -1  -6  16   74.59   20.80
  -1  -6  16   46.80   25.10
   0  -6  16  116.39   28.00
   0  -6  16  219.88   34.30
   1  -6  16   -2.30   18.90
  -2   6 -16   13.20   18.70
   2  -6  16   14.60   19.40
  -5  -5  16  229.88   35.50
  -5  -5  16  105.19   28.90
   4   5 -16   58.19   32.20
  -4  -5  16  -17.70   21.20
  -4  -5  16   54.79   20.90
   3   5 -16   23.10   21.00
  -3  -5  16   34.90   19.70
  -3  -5  16   24.40   23.50
  -2  -5  16  199.48   30.20
  -2  -5  16   95.09   28.40
  -1  -5  16   42.00   25.00
  -1  -5  16   59.69   19.60
   0  -5  16   11.90   16.80
   0  -5  16   -3.80   19.10
  -1   5 -16   65.69   21.20
   1  -5  16   83.99   26.00
  -2   5 -16   85.89   23.20
   2  -5  16  122.99   28.40
  -3   5 -16   -4.80   19.10
   3  -5  16   70.49   23.40
  -6  -4  16   26.50   23.00
   5   4 -16   43.90   21.80
  -5  -4  16   -0.60   20.20
   4   4 -16  194.68   31.30
  -4  -4  16  252.07   41.40
  -4  -4  16  196.98   34.90
   3   4 -16   27.50   21.10
  -3  -4  16   75.39   26.70
  -3  -4  16   75.19   20.80
  -2  -4  16   38.80   16.20
  -2  -4  16   -3.10   20.20
  -1  -4  16  173.48   28.50
  -1  -4  16  174.38   31.70
   0   4 -16  134.29   22.30
   0  -4  16  152.18   30.00
  -1   4 -16    1.70   16.20
   1  -4  16  -16.10   17.80
  -2   4 -16  143.39   26.80
   2  -4  16   83.89   26.00
  -3   4 -16  142.19   28.10
   3  -4  16  260.47   39.60
   6   3 -16  143.59   27.90
  -6  -3  16  181.78   34.30
   5   3 -16  116.79   24.20
  -5  -3  16   41.00   23.70
   4   3 -16    9.20   18.80
  -4  -3  16   -0.20   19.70
   3   3 -16  167.48   29.60
  -3  -3  16  234.18   36.40
  -2  -3  16  163.88   32.20
   1   3 -16    6.80   14.20
  -1  -3  16  -13.80   17.80
  -1  -3  16   43.90   24.50
   0   3 -16   63.49   19.70
   0  -3  16   49.30   23.50
  -1   3 -16  132.99   24.50
   1  -3  16  182.48   32.00
  -2   3 -16   17.40   19.80
   2  -3  16   96.19   26.80
  -3   3 -16    7.50   18.70
   3  -3  16   51.99   24.30
  -4   3 -16   76.59   25.90
   4  -3  16  215.68   38.80
   7   2 -16  151.48   32.30
  -7  -2  16  101.49   30.80
   6   2 -16   29.50   18.40
  -6  -2  16  -29.40   17.50
   5   2 -16  214.18   31.50
  -5  -2  16  120.19   29.80
   4   2 -16  157.98   27.90
  -4  -2  16  111.59   29.40
   3   2 -16   19.80   19.90
  -3  -2  16   -8.00   19.90
   2   2 -16   84.39   18.30
   2   2 -16   83.99   24.20
  -2  -2  16   86.59   26.80
   1   2 -16  204.38   27.50
  -1  -2  16  231.58   33.30
   0   2 -16   83.79   21.20
   0  -2  16   27.80   20.60
  -1   2 -16   38.10   18.40
   1  -2  16   16.70   18.30
  -2   2 -16  153.28   27.50
   2  -2  16  293.97   38.00
  -3   2 -16   49.10   23.70
   3  -2  16   83.59   25.50
  -4   2 -16   11.50   21.60
   4  -2  16   -5.20   20.30
   7   1 -16  157.48   26.80
  -7  -1  16  120.79   29.80
   6   1 -16  201.68   31.90
  -6  -1  16  198.08   36.90
   5   1 -16   46.10   20.30
  -5  -1  16   41.00   23.10
   4   1 -16   77.29   22.90
  -4  -1  16   56.19   25.30
   3   1 -16  186.78   29.40
   3   1 -16  194.08   24.80
  -3  -1  16  116.39   27.10
   2   1 -16  182.78   28.10
   2   1 -16  211.68   35.20
  -2  -1  16  258.77   37.80
   1   1 -16   24.80   14.80
  -1  -1  16   -2.10   18.30
   0   1 -16  195.18   30.10
   0  -1  16  247.28   37.10
  -1   1 -16  257.97   34.00
   1  -1  16  189.48   35.10
  -2   1 -16  -11.30   16.30
   2  -1  16   22.20   21.30
  -3   1 -16   72.59   23.90
   3  -1  16   43.40   23.00
   8   0 -16  204.88   32.70
  -8   0  16  172.18   34.10
   7   0 -16   22.00   18.40
  -7   0  16  -21.70   19.30
   6   0 -16   10.10   18.20
  -6   0  16   -7.50   20.80
   5   0 -16  204.38   34.00
  -5   0  16  199.08   33.40
   4   0 -16  146.19   27.60
   4   0 -16   95.09   19.30
  -4   0  16  133.69   28.90
   3   0 -16  -14.40   12.90
   3   0 -16   35.60   19.40
  -3   0  16  -19.40   17.80
   2   0 -16  333.17   30.80
   2   0 -16  289.57   36.30
  -2   0  16  295.07   37.60
  -2   0  16  279.17   27.00
   1   0 -16  199.58   31.80
   1   0 -16  193.18   30.50
  -1   0  16  181.88   30.30
   0   0 -16   14.10   17.40
   0   0  16    8.10   17.10
  -1   0 -16   84.89   23.60
   1   0  16  120.89   26.60
  -2   0 -16  111.79   25.60
   2   0  16  140.29   28.40
  -3   0 -16   31.50   21.30
   3   0  16   51.79   22.40
   8  -1 -16   33.50   19.30
  -8   1  16   11.30   20.60
   7  -1 -16  133.89   27.10
  -7   1  16  150.38   29.70
   6  -1 -16  109.49   25.10
  -6   1  16   88.59   25.50
   5  -1 -16    9.30   17.70
   5  -1 -16    2.60   13.40
  -5   1  16  -15.60   18.40
   4  -1 -16  183.88   27.80
   4  -1 -16  173.58   30.50
  -4   1  16  183.28   27.70
  -4   1  16  261.17   37.30
   3  -1 -16  385.56   38.90
   3  -1 -16  374.16   34.00
  -3   1  16  361.96   39.30
  -3   1  16  336.77   32.00
   2  -1 -16   33.10   15.90
   2  -1 -16   62.49   23.10
  -2   1  16   -9.80   17.30
  -2   1  16   14.50   13.20
   1  -1 -16   93.19   21.90
   1  -1 -16  107.89   26.80
  -1   1  16   97.29   25.20
   0  -1 -16  217.98   34.70
   0  -1 -16  195.38   32.00
   0   1  16  280.37   36.40
  -1  -1 -16   46.50   19.90
   1   1  16   61.29   23.90
  -2  -1 -16   12.10   20.60
   2   1  16   62.09   23.90
  -3  -1 -16  170.38   29.90
   3   1  16  211.48   36.80
   8  -2 -16  185.88   31.30
  -8   2  16  119.79   28.90
  -8   2  16  175.98   30.70
   7  -2 -16   -1.20   15.90
  -7   2  16   30.20   16.40
  -7   2  16  -16.30   17.60
   6  -2 -16  201.98   32.20
  -6   2  16  298.57   32.90
  -6   2  16  248.98   39.40
   5  -2 -16  245.38   28.90
   5  -2 -16  195.98   31.10
  -5   2  16  258.07   32.30
  -5   2  16  241.58   35.80
   4  -2 -16   25.70   16.50
   4  -2 -16   21.10   20.40
  -4   2  16    7.30   18.50
  -4   2  16   11.00   14.60
   3  -2 -16  115.09   26.60
   3  -2 -16   60.99   19.80
  -3   2  16   21.20   14.90
  -3   2  16   47.90   20.20
   2  -2 -16  345.57   34.70
   2  -2 -16  334.27   37.20
  -2   2  16  366.96   37.50
  -2   2  16  257.27   27.80
   1  -2 -16  105.99   21.90
   1  -2 -16   72.59   22.30
  -1   2  16  105.59   24.00
   0  -2 -16   49.50   19.80
   0  -2 -16    8.80   18.60
   0   2  16   76.59   22.80
  -1  -2 -16  233.98   35.00
  -1  -2 -16  142.89   28.60
   1   2  16  263.07   36.60
  -2  -2 -16   97.59   24.00
  -2  -2 -16   85.39   27.00
   2   2  16   90.39   24.20
   8  -3 -16   83.19   24.60
  -8   3  16   32.00   19.70
  -8   3  16   95.49   28.20
   7  -3 -16  223.78   33.00
  -7   3  16  193.58   31.60
  -7   3  16  131.29   29.30
   6  -3 -16   45.90   20.00
  -6   3  16    1.20   18.70
  -6   3  16   44.10   19.20
   5  -3 -16   51.69   20.40
  -5   3  16   54.99   19.00
  -5   3  16   50.69   21.20
   4  -3 -16  129.89   26.40
   4  -3 -16  182.78   27.60
  -4   3  16  174.58   27.30
  -4   3  16  163.08   27.80
   3  -3 -16  143.59   24.90
   3  -3 -16  160.98   28.90
  -3   3  16  162.88   25.60
  -3   3  16  106.29   23.60
   2  -3 -16    9.90   17.20
   2  -3 -16  -20.60   13.80
  -2   3  16   27.40   18.60
  -2   3  16   15.20   19.90
   1  -3 -16  222.28   33.40
   1  -3 -16  184.58   31.50
  -1   3  16  226.98   32.40
   0  -3 -16  243.18   32.80
   0  -3 -16  196.08   32.80
   0   3  16  216.78   34.80
  -1  -3 -16   31.60   20.30
  -1  -3 -16  -33.30   15.10
   1   3  16  -13.40   15.60
  -2  -3 -16  104.29   25.20
  -2  -3 -16  152.18   28.20
   2   3  16  197.28   33.50
   8  -4 -16   85.79   23.60
  -8   4  16   76.09   24.70
   7  -4 -16    9.00   16.60
  -7   4  16    0.00   19.20
  -7   4  16   10.90   18.40
   6  -4 -16  166.68   29.90
  -6   4  16  127.69   26.70
  -6   4  16  127.79   26.50
   5  -4 -16   50.89   20.40
  -5   4  16   52.39   18.90
  -5   4  16   27.20   18.50
   4  -4 -16   26.70   17.80
   4  -4 -16    7.60   16.40
  -4   4  16   29.20   18.40
  -4   4  16    4.90   14.00
   3  -4 -16  128.59   25.80
   3  -4 -16  230.98   33.80
  -3   4  16  169.48   27.00
  -3   4  16  166.08   31.00
   2  -4 -16  226.18   34.40
   2  -4 -16  198.48   33.10
  -2   4  16  179.28   30.20
   1  -4 -16    5.40   18.40
   1  -4 -16  -12.20   15.80
  -1   4  16    9.20   16.40
   0  -4 -16  119.99   26.40
   0  -4 -16  102.59   23.40
   0   4  16  156.28   27.70
  -1  -4 -16  165.98   29.40
  -1  -4 -16  211.48   34.80
   1   4  16  270.87   34.50
   7  -5 -16   85.79   24.70
  -7   5  16   79.39   23.80
   6  -5 -16   11.70   16.80
  -6   5  16   -9.10   14.90
   5  -5 -16   82.79   24.50
  -5   5  16   72.89   21.50
   4  -5 -16  166.98   28.80
   4  -5 -16  199.28   32.80
  -4   5  16  178.78   26.80
   3  -5 -16   23.40   19.50
   3  -5 -16  -18.70   15.70
  -3   5  16   38.20   17.60
  -3   5  16   28.00   13.70
   2  -5 -16   93.89   24.30
   2  -5 -16   65.89   21.00
  -2   5  16   82.09   21.90
   1  -5 -16  133.49   26.50
   1  -5 -16  114.19   25.10
  -1   5  16  105.09   23.90
   0  -5 -16   50.09   20.60
   0  -5 -16   43.10   21.20
   0   5  16   69.59   19.90
   6  -6 -16   78.79   23.50
  -6   6  16   77.69   20.80
   5  -6 -16   32.30   19.40
  -5   6  16   -1.20   15.10
   4  -6 -16   56.09   23.70
  -4   6  16   44.40   18.50
   3  -6 -16  139.89   27.10
   3  -6 -16  106.49   24.40
  -3   6  16  129.79   24.80
   2  -6 -16    7.80   16.60
   2  -6 -16   -0.50   17.20
  -1  -6  17  -10.00   22.60
  -1  -6  17   -1.80   16.70
   0  -6  17   94.19   23.60
   0  -6  17   56.79   24.10
   3   5 -17   22.00   21.10
  -3  -5  17  -29.30   21.40
  -2  -5  17   80.59   21.30
  -2  -5  17   18.20   23.90
  -1  -5  17  171.98   30.30
  -1  -5  17   78.69   27.40
   0  -5  17   24.70   22.30
  -1   5 -17    3.20   18.30
   1  -5  17   26.80   20.40
  -5  -4  17   61.89   29.30
   4   4 -17   52.09   21.70
  -4  -4  17   14.30   24.00
   3   4 -17  360.36   42.50
  -3  -4  17  194.88   37.20
  -2  -4  17   46.50   26.60
  -1  -4  17  -10.00   18.60
   0   4 -17   44.90   19.70
   0  -4  17   33.50   22.60
  -1   4 -17   65.19   19.10
   1  -4  17   74.19   25.20
  -2   4 -17   -7.40   16.90
   2  -4  17   39.90   22.40
   5   3 -17  260.57   33.90
  -5  -3  17  208.58   36.70
   4   3 -17  102.69   24.80
  -4  -3  17   83.79   28.20
   3   3 -17   18.00   20.50
  -3  -3  17   19.90   22.60
   2   3 -17  151.08   32.30
  -2  -3  17  160.58   32.40
   1   3 -17  100.29   21.50
  -1  -3  17  166.68   31.20
   0   3 -17   13.80   16.60
   0  -3  17  -37.80   17.40
  -1   3 -17   84.19   22.70
   1  -3  17   66.39   24.50
  -2   3 -17  223.48   35.00
   2  -3  17  303.97   40.40
   6   2 -17  136.09   26.70
  -6  -2  17   70.69   28.00
   5   2 -17   76.79   21.80
  -5  -2  17  -25.20   18.60
   4   2 -17  243.48   35.70
  -4  -2  17  155.58   32.90
   3   2 -17  106.99   28.50
  -3  -2  17   88.29   27.00
   2   2 -17   23.30   21.20
   2   2 -17   23.00   15.80
  -2  -2  17   18.60   22.70
   1   2 -17  164.68   27.80
  -1  -2  17  148.79   30.60
   0   2 -17  227.48   33.90
   0  -2  17  236.58   38.20
  -1   2 -17   86.89   23.30
   1  -2  17   77.99   25.30
  -2   2 -17   26.90   19.60
   2  -2  17   45.50   20.50
   7   1 -17    0.80   16.80
  -7  -1  17  -13.30   20.80
   6   1 -17   47.40   22.80
  -6  -1  17   43.30   26.30
   5   1 -17  146.49   27.70
  -5  -1  17  112.39   28.30
   4   1 -17    7.00   18.90
  -4  -1  17    9.60   22.40
   3   1 -17   36.80   16.80
   3   1 -17   31.90   22.70
  -3  -1  17   28.00   24.30
   2   1 -17  292.47   40.10
   2   1 -17  259.37   31.50
  -2  -1  17  251.67   38.30
   1   1 -17    9.60   23.40
   1   1 -17   33.80   17.70
  -1  -1  17   64.09   24.20
   0   1 -17   -6.80   15.20
   0  -1  17   47.40   22.30
  -1   1 -17  224.58   33.50
   1  -1  17  205.68   37.60
  -2   1 -17   50.99   23.20
   2  -1  17   57.39   24.70
   7   0 -17   96.79   24.10
  -7   0  17  110.59   29.70
   6   0 -17   -2.80   17.60
  -6   0  17    9.60   21.50
   5   0 -17   47.80   21.50
  -5   0  17   37.80   25.10
   4   0 -17  241.08   36.40
  -4   0  17  146.19   30.90
   3   0 -17   52.69   19.00
   3   0 -17   67.59   23.40
  -3   0  17   27.20   22.30
  -3   0  17   78.69   18.90
   2   0 -17   28.30   14.80
   2   0 -17   44.50   21.80
  -2   0  17   35.20   21.40
   1   0 -17   93.99   22.10
   1   0 -17  192.08   32.90
  -1   0  17  148.49   29.20
   0   0 -17  128.59   24.10
   0   0  17  136.89   28.20
  -1   0 -17    8.90   18.70
   1   0  17   64.29   22.80
  -2   0 -17   79.69   24.80
   2   0  17   69.29   23.80
   7  -1 -17   62.59   22.20
  -7   1  17   60.29   25.80
   6  -1 -17  176.78   30.00
  -6   1  17  201.68   34.60
   5  -1 -17  133.99   28.50
  -5   1  17  124.19   24.20
  -5   1  17   79.99   26.10
   4  -1 -17   42.70   20.40
   4  -1 -17   28.60   16.10
  -4   1  17  -20.80   19.00
  -4   1  17   25.20   14.30
   3  -1 -17  113.59   27.80
   3  -1 -17  130.29   24.30
  -3   1  17  117.39   21.90
  -3   1  17   98.59   25.40
   2  -1 -17  152.48   28.70
   2  -1 -17  139.19   24.70
  -2   1  17   96.29   25.30
   1  -1 -17   28.90   19.00
   1  -1 -17   22.20   17.60
  -1   1  17    3.60   17.80
   0  -1 -17   64.79   21.30
   0  -1 -17   40.30   24.00
   0   1  17   84.09   24.10
  -1  -1 -17  151.98   27.80
  -1  -1 -17  166.48   31.80
   1   1  17  182.88   32.60
   7  -2 -17   61.39   23.30
  -7   2  17   64.49   21.70
  -7   2  17   32.60   25.40
   6  -2 -17   -7.80   15.60
  -6   2  17   -5.70   19.60
  -6   2  17  -15.50   16.70
   5  -2 -17  165.28   27.40
   5  -2 -17  161.68   31.40
  -5   2  17  132.89   25.80
  -5   2  17  151.68   30.30
   4  -2 -17  226.48   36.50
   4  -2 -17  196.88   29.40
  -4   2  17  216.88   30.60
  -4   2  17  183.08   33.90
   3  -2 -17   -2.80   15.60
   3  -2 -17  -29.30   15.90
  -3   2  17    5.00   18.60
  -3   2  17    1.50   13.90
   2  -2 -17   73.99   23.30
   2  -2 -17  109.59   23.90
  -2   2  17  110.79   26.30
   1  -2 -17  146.59   28.50
   1  -2 -17  232.48   32.60
  -1   2  17  206.78   34.40
   0  -2 -17   53.89   23.90
   0  -2 -17  108.29   25.50
   0   2  17   65.59   24.70
  -1  -2 -17   13.70   19.70
  -1  -2 -17   28.10   20.50
   1   2  17   16.30   19.60
   7  -3 -17   93.99   24.50
  -7   3  17   55.99   22.00
  -7   3  17   41.30   24.10
   6  -3 -17  138.69   28.80
  -6   3  17  104.59   27.70
  -6   3  17  148.19   28.40
   5  -3 -17    9.60   18.30
  -5   3  17   -9.60   17.70
  -5   3  17    4.50   16.20
   4  -3 -17   62.29   24.80
   4  -3 -17   24.80   18.00
  -4   3  17   49.50   21.20
  -4   3  17   54.29   19.50
   3  -3 -17  272.97   34.50
   3  -3 -17  285.27   38.40
  -3   3  17  244.38   29.50
  -3   3  17  251.27   34.70
   2  -3 -17  106.49   24.90
   2  -3 -17  124.19   27.70
  -2   3  17  153.18   27.30
   1  -3 -17   -5.00   16.90
   1  -3 -17   -2.60   16.10
  -1   3  17   19.20   17.90
   0  -3 -17  130.99   26.70
   0  -3 -17  217.98   34.40
   0   3  17  200.78   35.00
   6  -4 -17    1.70   19.10
  -6   4  17   36.40   22.10
  -6   4  17   49.99   20.10
   5  -4 -17  103.49   24.30
  -5   4  17  124.99   25.50
  -5   4  17  119.69   24.20
   4  -4 -17   24.30   21.30
   4  -4 -17   45.00   19.60
  -4   4  17   14.50   17.80
  -4   4  17   50.39   19.00
   3  -4 -17    7.40   16.80
   3  -4 -17   18.70   20.30
  -3   4  17   10.40   14.80
  -3   4  17    9.80   17.20
   2  -4 -17  160.08   28.90
   2  -4 -17  221.08   36.50
  -2   4  17  218.08   32.60
   1  -4 -17  128.49   27.00
   1  -4 -17   99.39   25.30
  -1   4  17  116.89   25.50
   5  -5 -17   -3.50   18.10
  -5   5  17    8.70   15.90
   4  -5 -17   85.59   24.00
   4  -5 -17   95.09   24.50
  -4   5  17   39.70   18.70
   3  -5 -17  133.89   28.50
   3  -5 -17  134.29   27.10
   2  -5 -17    5.10   17.70
   2  -5 -17   34.10   20.00
   2   4 -18  125.09   30.60
  -2  -4  18  118.59   33.00
  -1  -4  18  111.39   30.20
   4   3 -18  153.08   29.90
  -4  -3  18  138.09   34.20
   3   3 -18  123.99   29.60
  -3  -3  18   36.10   27.00
   2   3 -18   -7.20   20.70
  -2  -3  18  -18.80   19.50
  -1  -3  18  114.89   27.90
   0   3 -18   97.99   22.80
   0  -3  18   99.49   28.70
   4   2 -18    1.30   19.10
  -4  -2  18  -42.90   19.90
   3   2 -18  142.49   31.10
  -3  -2  18  138.29   33.50
   2   2 -18  304.67   42.10
  -2  -2  18  260.57   41.10
   1   2 -18   -3.60   15.20
  -1  -2  18   -8.50   19.50
   0   2 -18   88.19   23.10
   0  -2  18   70.99   25.20
   5   1 -18   68.79   25.50
  -5  -1  18   37.70   26.60
   4   1 -18  219.98   37.50
  -4  -1  18  102.09   30.70
   3   1 -18   39.10   21.90
  -3  -1  18    9.90   23.00
   2   1 -18  103.59   20.10
   2   1 -18   95.19   27.50
  -2  -1  18  111.89   28.10
   1   1 -18  131.09   24.60
   1   1 -18  158.98   33.00
  -1  -1  18  115.09   27.70
   0   1 -18   54.39   19.00
   0  -1  18   45.80   23.10
   5   0 -18   36.10   22.90
  -5   0  18    3.60   22.10
   4   0 -18   22.40   20.70
  -4   0  18   27.00   15.60
  -4   0  18   56.19   26.50
   3   0 -18  119.59   29.10
   3   0 -18  115.39   22.80
  -3   0  18  132.39   28.70
  -3   0  18  176.08   29.00
   2   0 -18   13.90   23.70
   2   0 -18   31.90   16.50
  -2   0  18   31.50   21.80
   1   0 -18   33.70   18.70
   1   0 -18   48.30   22.80
  -1   0  18   33.20   22.30
   0   0 -18  101.79   24.60
   0   0 -18   65.29   26.20
   0   0  18  123.79   28.90
   6  -1 -18   48.70   21.80
  -6   1  18   68.29   19.90
  -6   1  18  -13.20   21.30
   5  -1 -18  169.68   31.10
  -5   1  18  283.97   33.20
  -5   1  18  138.09   31.60
   4  -1 -18   56.69   18.90
   4  -1 -18   72.49   24.10
  -4   1  18   29.30   22.80
  -4   1  18   80.79   22.40
   3  -1 -18   -3.60   18.80
   3  -1 -18   -3.40   15.90
  -3   1  18  -21.10   17.10
   2  -1 -18  169.38   31.10
   2  -1 -18  228.08   31.10
  -2   1  18  101.29   26.70
   1  -1 -18  119.39   29.70
   1  -1 -18  123.79   23.40
  -1   1  18   73.69   25.50
   0  -1 -18    8.00   21.40
   0  -1 -18  -10.00   15.80
   0   1  18   23.90   18.40
   5  -2 -18   -4.90   16.60
  -5   2  18   35.00   17.90
  -5   2  18   -6.40   21.00
   4  -2 -18  146.19   25.50
   4  -2 -18   94.49   26.60
  -4   2  18  116.39   27.10
  -4   2  18  127.99   24.60
   3  -2 -18  125.89   27.60
   3  -2 -18  126.69   24.60
  -3   2  18  136.69   28.20
   2  -2 -18   17.70   17.80
   2  -2 -18   14.00   20.10
  -2   2  18   11.10   18.90
   1  -2 -18   45.40   18.90
   1  -2 -18   64.59   24.40
  -1   2  18   99.19   24.70
   5  -3 -18  117.19   27.70
  -5   3  18   72.49   24.20
  -5   3  18   87.49   23.20
   4  -3 -18   18.20   19.70
   4  -3 -18   29.20   18.50
  -4   3  18   20.10   16.10
  -4   3  18   16.30   20.00
   3  -3 -18  111.59   24.40
   3  -3 -18   59.19   25.10
  -3   3  18   79.69   23.40
   2  -3 -18  226.38   36.70
   2  -3 -18  188.98   30.50
  -2   3  18  263.77   36.00
   0   0   0    0.00    0.00

_computing_structure_solution     'SHELXT 2014/5 (Sheldrick, 2014)'
;
_shelx_hkl_checksum              37429
